# Discretization File created on 2025/11/27 by ModelMuse version 5.4.0.0.
# Upper left corner: (10.0558748403579, 989.988825031928)
# Lower left corner: (10.0558748403579, -10.0111749680718)
# Upper right corner: (1010.05587484036, 989.988825031928)
# Lower right corner: (1010.05587484036, -10.0111749680718)
# Grid angle (in degrees counterclockwise): 0
# Number of active cells = 29514.
BEGIN OPTIONS
  LENGTH_UNITS METERS
  XORIGIN  1.005587484036E+001 
  YORIGIN -1.001117496807E+001 
  ANGROT  0.000000000000E+000 
END OPTIONS

BEGIN DIMENSIONS
  NLAY      2
  NROW    128
  NCOL    128
END DIMENSIONS


BEGIN GRIDDATA
  DELR LAYERED
    INTERNAL IPRN     12 # DELR
        1.000000000000E+001   1.000000000000E+001   1.000000000000E+001   1.000000000000E+001   1.000000000000E+001   1.000000000000E+001   1.000000000000E+001   1.000000000000E+001   1.000000000000E+001   1.000000000000E+001 
        1.000000000000E+001   1.000000000000E+001   1.000000000000E+001   1.000000000000E+001   1.000000000000E+001   1.000000000000E+001   1.000000000000E+001   1.000000000000E+001   1.000000000000E+001   1.000000000000E+001 
        1.000000000000E+001   1.000000000000E+001   1.000000000000E+001   1.000000000000E+001   1.000000000000E+001   1.000000000000E+001   1.000000000000E+001   1.000000000000E+001   1.000000000000E+001   1.000000000000E+001 
        1.000000000000E+001   1.000000000000E+001   1.000000000000E+001   1.000000000000E+001   1.000000000000E+001   1.000000000000E+001   1.000000000000E+001   1.000000000000E+001   1.000000000000E+001   1.000000000000E+001 
        8.682780846969E+000   7.235650782346E+000   6.029709156130E+000   5.024757665417E+000   4.187298089837E+000   3.489415095582E+000   2.907845928639E+000   2.423204956203E+000   2.019337478876E+000   2.000000000000E+000 
        2.000000000000E+000   2.000000000000E+000   2.000000000000E+000   2.000000000000E+000   2.000000000000E+000   2.000000000000E+000   2.000000000000E+000   2.000000000000E+000   2.000000000000E+000   2.000000000000E+000 
        2.000000000000E+000   2.000000000000E+000   2.000000000000E+000   2.000000000000E+000   2.000000000000E+000   2.000000000000E+000   2.000000000000E+000   2.000000000000E+000   2.000000000000E+000   2.000000000000E+000 
        2.000000000000E+000   2.000000000000E+000   2.019337492543E+000   2.423204969285E+000   2.907845940136E+000   3.489415104086E+000   4.187298093844E+000   5.024757663617E+000   6.029709145480E+000   7.235650769565E+000 
        8.682780821443E+000   1.000000000000E+001   1.000000000000E+001   1.000000000000E+001   1.000000000000E+001   1.000000000000E+001   1.000000000000E+001   1.000000000000E+001   1.000000000000E+001   1.000000000000E+001 
        1.000000000000E+001   1.000000000000E+001   1.000000000000E+001   1.000000000000E+001   1.000000000000E+001   1.000000000000E+001   1.000000000000E+001   1.000000000000E+001   1.000000000000E+001   1.000000000000E+001 
        1.000000000000E+001   1.000000000000E+001   1.000000000000E+001   1.000000000000E+001   1.000000000000E+001   1.000000000000E+001   1.000000000000E+001   1.000000000000E+001   1.000000000000E+001   1.000000000000E+001 
        1.000000000000E+001   1.000000000000E+001   1.000000000000E+001   1.000000000000E+001   1.000000000000E+001   1.000000000000E+001   1.000000000000E+001   1.000000000000E+001   1.000000000000E+001   1.000000000000E+001 
        1.000000000000E+001   1.000000000000E+001   1.000000000000E+001   1.000000000000E+001   1.000000000000E+001   1.000000000000E+001   1.000000000000E+001   1.000000000000E+001 
  DELC LAYERED
    INTERNAL IPRN     12 # DELC
        1.000000000000E+001   1.000000000000E+001   1.000000000000E+001   1.000000000000E+001   1.000000000000E+001   1.000000000000E+001   1.000000000000E+001   1.000000000000E+001   1.000000000000E+001   1.000000000000E+001 
        1.000000000000E+001   1.000000000000E+001   1.000000000000E+001   1.000000000000E+001   1.000000000000E+001   1.000000000000E+001   1.000000000000E+001   1.000000000000E+001   1.000000000000E+001   1.000000000000E+001 
        1.000000000000E+001   1.000000000000E+001   1.000000000000E+001   1.000000000000E+001   1.000000000000E+001   1.000000000000E+001   1.000000000000E+001   1.000000000000E+001   1.000000000000E+001   1.000000000000E+001 
        1.000000000000E+001   1.000000000000E+001   1.000000000000E+001   1.000000000000E+001   1.000000000000E+001   1.000000000000E+001   1.000000000000E+001   1.000000000000E+001   1.000000000000E+001   1.000000000000E+001 
        1.000000000000E+001   1.000000000000E+001   8.682780821443E+000   7.235650769565E+000   6.029709145480E+000   5.024757663617E+000   4.187298093844E+000   3.489415104086E+000   2.907845940136E+000   2.423204969286E+000 
        2.019337492543E+000   2.000000000000E+000   2.000000000000E+000   2.000000000000E+000   2.000000000000E+000   2.000000000000E+000   2.000000000000E+000   2.000000000000E+000   2.000000000000E+000   2.000000000000E+000 
        2.000000000000E+000   2.000000000000E+000   2.000000000000E+000   2.000000000000E+000   2.000000000000E+000   2.000000000000E+000   2.000000000000E+000   2.000000000000E+000   2.000000000000E+000   2.000000000000E+000 
        2.000000000000E+000   2.000000000000E+000   2.000000000000E+000   2.000000000000E+000   2.019337478876E+000   2.423204956203E+000   2.907845928639E+000   3.489415095582E+000   4.187298089837E+000   5.024757665417E+000 
        6.029709156130E+000   7.235650782346E+000   8.682780846969E+000   1.000000000000E+001   1.000000000000E+001   1.000000000000E+001   1.000000000000E+001   1.000000000000E+001   1.000000000000E+001   1.000000000000E+001 
        1.000000000000E+001   1.000000000000E+001   1.000000000000E+001   1.000000000000E+001   1.000000000000E+001   1.000000000000E+001   1.000000000000E+001   1.000000000000E+001   1.000000000000E+001   1.000000000000E+001 
        1.000000000000E+001   1.000000000000E+001   1.000000000000E+001   1.000000000000E+001   1.000000000000E+001   1.000000000000E+001   1.000000000000E+001   1.000000000000E+001   1.000000000000E+001   1.000000000000E+001 
        1.000000000000E+001   1.000000000000E+001   1.000000000000E+001   1.000000000000E+001   1.000000000000E+001   1.000000000000E+001   1.000000000000E+001   1.000000000000E+001   1.000000000000E+001   1.000000000000E+001 
        1.000000000000E+001   1.000000000000E+001   1.000000000000E+001   1.000000000000E+001   1.000000000000E+001   1.000000000000E+001   1.000000000000E+001   1.000000000000E+001 
  TOP LAYERED IPRN    12
    CONSTANT   4.000000000000E+001  # TOP

  BOTM LAYERED
    INTERNAL IPRN     12 # BOTM, Upper Aquifer
        3.335201389659E+001   3.314065782064E+001   3.292825112868E+001   3.271501844351E+001   3.250118438793E+001   3.228697358473E+001   3.207261065674E+001   3.185832022674E+001   3.164432691755E+001   3.143085535197E+001 
        3.121813015280E+001   3.100637594284E+001   3.079581734490E+001   3.058667898179E+001   3.037918547630E+001   3.017356145124E+001   2.996921653380E+001   2.976476170658E+001   2.957987675527E+001   2.942751282082E+001 
        2.928953563703E+001   2.916396706279E+001   2.905013481004E+001   2.894742220892E+001   2.885526432524E+001   2.877314440377E+001   2.870059061479E+001   2.863717308350E+001   2.858250118361E+001   2.853622107798E+001 
        2.849801349089E+001   2.846759169797E+001   2.844469972096E+001   2.842911071616E+001   2.842062554617E+001   2.841907152625E+001   2.842430133702E+001   2.843619209702E+001   2.845464458902E+001   2.847958263540E+001 
        2.850868944374E+001   2.853789763588E+001   2.856533045862E+001   2.859033919414E+001   2.861267349125E+001   2.863232468938E+001   2.864942398601E+001   2.866417680121E+001   2.867682113813E+001   2.868853591475E+001 
        2.870045416931E+001   2.871263216395E+001   2.872507046163E+001   2.873776966163E+001   2.875073039966E+001   2.876395334806E+001   2.877743921592E+001   2.879118874933E+001   2.880520273149E+001   2.881948198296E+001 
        2.883402736184E+001   2.884883976401E+001   2.886392012332E+001   2.887926941187E+001   2.889488864022E+001   2.891077885764E+001   2.892694115242E+001   2.894337665209E+001   2.896008652373E+001   2.897707197427E+001 
        2.899433425078E+001   2.901187464079E+001   2.902978130125E+001   2.904990334506E+001   2.907450976723E+001   2.910470447393E+001   2.914190697206E+001   2.918796030439E+001   2.924528297034E+001   2.931708592304E+001 
        2.940768771201E+001   2.952037149474E+001   2.964885632924E+001   2.978578266399E+001   2.993150958957E+001   3.008643333173E+001   3.025098974598E+001   3.042565706169E+001   3.061095889296E+001   3.080746753523E+001 
        3.101580756838E+001   3.123665978903E+001   3.147076549671E+001   3.171826702053E+001   3.196595624721E+001   3.219499927150E+001   3.239296115592E+001   3.255344266623E+001   3.267439532133E+001   3.275618540181E+001 
        3.280020868112E+001   3.280830628666E+001   3.278971212058E+001   3.274884157735E+001   3.268569465702E+001   3.260027135963E+001   3.249257168526E+001   3.236259563404E+001   3.221034320620E+001   3.203581440209E+001 
        3.183900922233E+001   3.161992766793E+001   3.137856974060E+001   3.111493544317E+001   3.082902478039E+001   3.052083776018E+001   3.019037439578E+001   2.983763470931E+001   2.946261873769E+001   2.906532654263E+001 
        2.864575822719E+001   2.820391396353E+001   2.773979403923E+001   2.725339893466E+001   2.674472945227E+001   2.621378693248E+001   2.566057361434E+001   2.508509323804E+001 
        3.347906795404E+001   3.327384239914E+001   3.306731958358E+001   3.285972413015E+001   3.265128066167E+001   3.244221380093E+001   3.223274817074E+001   3.202310839391E+001   3.181351909323E+001   3.160420489151E+001 
        3.139539041156E+001   3.118730027617E+001   3.098015910816E+001   3.077419153032E+001   3.056962216546E+001   3.036667563638E+001   3.016557656589E+001   2.996609759623E+001   2.977230800691E+001   2.960493001268E+001 
        2.945124582958E+001   2.930990948366E+001   2.918025368604E+001   2.906166641488E+001   2.895358706216E+001   2.885550290417E+001   2.876694587343E+001   2.868748961184E+001   2.861674678635E+001   2.855436665038E+001 
        2.850003283554E+001   2.845346135982E+001   2.841439883968E+001   2.838262089477E+001   2.835793073529E+001   2.834015792296E+001   2.832915729803E+001   2.832480806532E+001   2.832701303375E+001   2.833569800440E+001 
        2.834961888222E+001   2.836588678157E+001   2.838253584453E+001   2.839855841704E+001   2.841340470509E+001   2.842681635996E+001   2.843871644371E+001   2.844913691267E+001   2.845817121940E+001   2.846662008554E+001 
        2.847528836741E+001   2.848421662968E+001   2.849340545108E+001   2.850285544670E+001   2.851256726817E+001   2.852254160377E+001   2.853277917868E+001   2.854328075507E+001   2.855404713238E+001   2.856507914747E+001 
        2.857637767482E+001   2.858794362680E+001   2.859977795387E+001   2.861188164481E+001   2.862425572697E+001   2.863690126657E+001   2.864981936892E+001   2.866301117871E+001   2.867647788031E+001   2.869022069807E+001 
        2.870424089659E+001   2.871853978111E+001   2.873318986009E+001   2.874971314518E+001   2.877000208259E+001   2.879501734255E+001   2.882600681655E+001   2.886460802759E+001   2.891299351385E+001   2.897408013592E+001 
        2.905183525426E+001   2.914946115253E+001   2.926185249147E+001   2.938271514054E+001   2.951241132645E+001   2.965134061851E+001   2.979994244426E+001   2.995869885608E+001   3.012813756609E+001   3.030883526861E+001 
        3.050142127091E+001   3.070658145529E+001   3.092506259729E+001   3.115653040822E+001   3.138471731011E+001   3.158926734072E+001   3.175874818428E+001   3.188903045865E+001   3.198011080649E+001   3.203361583945E+001 
        3.205340588854E+001   3.204968327747E+001   3.202368428927E+001   3.197540892398E+001   3.190485718166E+001   3.181202906240E+001   3.169692456636E+001   3.155954369382E+001   3.139988644521E+001   3.121795282128E+001 
        3.101374282327E+001   3.078725645326E+001   3.053849371470E+001   3.026745461338E+001   2.997413915896E+001   2.965854736758E+001   2.932067926619E+001   2.896053489983E+001   2.857811434371E+001   2.817341772350E+001 
        2.774644524906E+001   2.729719727101E+001   2.682567437500E+001   2.633187753933E+001   2.581580839816E+001   2.527746968125E+001   2.471686594846E+001   2.413400481668E+001 
        3.359392562382E+001   3.339510141546E+001   3.319473330178E+001   3.299304590560E+001   3.279026384971E+001   3.258661175692E+001   3.238231425004E+001   3.217759595185E+001   3.197268148518E+001   3.176779547283E+001 
        3.156316253759E+001   3.135900730227E+001   3.115555438967E+001   3.095302842260E+001   3.075165402387E+001   3.055165581626E+001   3.035325842260E+001   3.015668646568E+001   2.996212676087E+001   2.977952182176E+001 
        2.961012514688E+001   2.945301598624E+001   2.930753201839E+001   2.917306584040E+001   2.904906114374E+001   2.893500921179E+001   2.883044571710E+001   2.873494779793E+001   2.864813139608E+001   2.856964883882E+001 
        2.849918665002E+001   2.843646357655E+001   2.838122881752E+001   2.833326044529E+001   2.829236400821E+001   2.825837130644E+001   2.823113933289E+001   2.821054937296E+001   2.819650625705E+001   2.818893776144E+001 
        2.818767249553E+001   2.819100003504E+001   2.819686536266E+001   2.820390184833E+001   2.821126022968E+001   2.821843245366E+001   2.822513343708E+001   2.823122166675E+001   2.823664604162E+001   2.824182909347E+001 
        2.824724750521E+001   2.825292614450E+001   2.825886560588E+001   2.826506652031E+001   2.827152955532E+001   2.827825541522E+001   2.828524484124E+001   2.829249861174E+001   2.830001754240E+001   2.830780248640E+001 
        2.831585433469E+001   2.832417401616E+001   2.833276249789E+001   2.834162078542E+001   2.835074992295E+001   2.836015099367E+001   2.836982511997E+001   2.837977346377E+001   2.838999722677E+001   2.840049765079E+001 
        2.841127601806E+001   2.842233365155E+001   2.843372741260E+001   2.844665223953E+001   2.846262406577E+001   2.848246034616E+001   2.850723738420E+001   2.853838722018E+001   2.857783648175E+001   2.862820800740E+001 
        2.869311806775E+001   2.877568816566E+001   2.887198848160E+001   2.897679018251E+001   2.909045864849E+001   2.921339681142E+001   2.934604769179E+001   2.948889718790E+001   2.964247713503E+001   2.980736865379E+001 
        2.998420580880E+001   3.017367960067E+001   3.037654231647E+001   3.059172589787E+001   3.079896562551E+001   3.097681166526E+001   3.111641307051E+001   3.121679007043E+001   3.127987180500E+001   3.131331513475E+001 
        3.132446407870E+001   3.131333664553E+001   3.127993283529E+001   3.122425264805E+001   3.114629608392E+001   3.104606314311E+001   3.092355382593E+001   3.077876813294E+001   3.061170606502E+001   3.042236762371E+001 
        3.021075281152E+001   2.997686163267E+001   2.972069409423E+001   2.944225020796E+001   2.914152999353E+001   2.881853348383E+001   2.847326073374E+001   2.810571183496E+001   2.771588694069E+001   2.730378630681E+001 
        2.686941036076E+001   2.641275981654E+001   2.593383586683E+001   2.543264050394E+001   2.490917705584E+001   2.436345108170E+001   2.379547186765E+001   2.320525492554E+001 
        3.369628952890E+001   3.350413749257E+001   3.331019490628E+001   3.311468639283E+001   3.291783657504E+001   3.271987007569E+001   3.252101151760E+001   3.232148552357E+001   3.212151671640E+001   3.192132971890E+001 
        3.172114915386E+001   3.152119964411E+001   3.132170581242E+001   3.112289228162E+001   3.092498367450E+001   3.072820461388E+001   3.053277972254E+001   3.033893362330E+001   3.014732037729E+001   2.995171158176E+001 
        2.973120964109E+001   2.949762912957E+001   2.925576540777E+001   2.900959247355E+001   2.890330543812E+001   2.891198983261E+001   2.888851631218E+001   2.877954740055E+001   2.867665479480E+001   2.858206744715E+001 
        2.849547475883E+001   2.841659819218E+001   2.834518951704E+001   2.828102924790E+001   2.822392526207E+001   2.817371159007E+001   2.813024737072E+001   2.809341596432E+001   2.806312421825E+001   2.803930188053E+001 
        2.802285027124E+001   2.801323739533E+001   2.800831902163E+001   2.800636950463E+001   2.800624008831E+001   2.800717299939E+001   2.800867499969E+001   2.801043110097E+001   2.801224564557E+001   2.801416298228E+001 
        2.801633162941E+001   2.801876075812E+001   2.802145097876E+001   2.802440293817E+001   2.802761731986E+001   2.803109484417E+001   2.803483626844E+001   2.803884238724E+001   2.804311403252E+001   2.804765207387E+001 
        2.805245741869E+001   2.805753101245E+001   2.806287383892E+001   2.806848692043E+001   2.807437131809E+001   2.808052813209E+001   2.808695850199E+001   2.809366360695E+001   2.810064466610E+001   2.810790293876E+001 
        2.811543972487E+001   2.812325636519E+001   2.813139407528E+001   2.814072074842E+001   2.815237584173E+001   2.816703361538E+001   2.818559881249E+001   2.820929802806E+001   2.823981203031E+001   2.827946970657E+001 
        2.833153633760E+001   2.839905273901E+001   2.847926452689E+001   2.856800804102E+001   2.866565183223E+001   2.877260221416E+001   2.888930582132E+001   2.901625242107E+001   2.915397799713E+001   2.930306812408E+001 
        2.946416165404E+001   2.963795473881E+001   2.982520521280E+001   3.002366247961E+001   3.020770466391E+001   3.035654235924E+001   3.046622819327E+001   3.053973714920E+001   3.058803402530E+001   3.061405452427E+001 
        3.061779864614E+001   3.059926639096E+001   3.055845775882E+001   3.049537274985E+001   3.041001136431E+001   3.030237360258E+001   3.017245946532E+001   3.002026895365E+001   2.984580206940E+001   2.964905881565E+001 
        2.943003919755E+001   2.918874322370E+001   2.892517090846E+001   2.863932227581E+001   2.833119736582E+001   2.800079624543E+001   2.764811902642E+001   2.727316589556E+001   2.687593716482E+001   2.645643335530E+001 
        2.601465533747E+001   2.555060456541E+001   2.506428346803E+001   2.455569610263E+001   2.402484924667E+001   2.347175422136E+001   2.289642993796E+001   2.229890798633E+001 
        3.378586229227E+001   3.360065325346E+001   3.341340702005E+001   3.322434821484E+001   3.303370146063E+001   3.284169138022E+001   3.264854259642E+001   3.245447973204E+001   3.225972740987E+001   3.206451025271E+001 
        3.186905288338E+001   3.167357992468E+001   3.147831599941E+001   3.128348573037E+001   3.108931374036E+001   3.089602465220E+001   3.070384308868E+001   3.051363896160E+001   3.032730051179E+001   3.014334952810E+001 
        2.993742598787E+001   2.970127082597E+001   2.944800264019E+001   2.918341743714E+001   2.891125032163E+001   2.863465599628E+001   2.835652069222E+001   2.807951809359E+001   2.780613283463E+001   2.753868853508E+001 
        2.728290777145E+001   2.718023831678E+001   2.723972041978E+001   2.737770261603E+001   2.754373670851E+001   2.770851635159E+001   2.784947490501E+001   2.793819013480E+001   2.792686687795E+001   2.788679033693E+001 
        2.785515219815E+001   2.783259886274E+001   2.781689683130E+001   2.780596140381E+001   2.779834430555E+001   2.779303802729E+001   2.778934116641E+001   2.778676525409E+001   2.778497007331E+001   2.778362179701E+001 
        2.778254078804E+001   2.778172052154E+001   2.778116162371E+001   2.778086475732E+001   2.778083062186E+001   2.778105995374E+001   2.778155352646E+001   2.778231215082E+001   2.778333667511E+001   2.778462798532E+001 
        2.778618700540E+001   2.778801469742E+001   2.779011206188E+001   2.779248013796E+001   2.779512000371E+001   2.779803277642E+001   2.780121961281E+001   2.780468170939E+001   2.780842030274E+001   2.781243666978E+001 
        2.781673212816E+001   2.782130803656E+001   2.782618996612E+001   2.783191879369E+001   2.783925753695E+001   2.784873728233E+001   2.786109124048E+001   2.787734059874E+001   2.789892031746E+001   2.792786540427E+001 
        2.796709025075E+001   2.801955507938E+001   2.808368085667E+001   2.815636896933E+001   2.823799115649E+001   2.832895713286E+001   2.842971716823E+001   2.854076492232E+001   2.866264055280E+001   2.879593411606E+001 
        2.894128928213E+001   2.909940738715E+001   2.927105184888E+001   2.945187319157E+001   2.960941659977E+001   2.972843893152E+001   2.981439412907E+001   2.987756256019E+001   2.991845461419E+001   2.993707029110E+001 
        2.993340959099E+001   2.990747251397E+001   2.985925906020E+001   2.978876922999E+001   2.969600302380E+001   2.958096044245E+001   2.944364148728E+001   2.928404616054E+001   2.910217446599E+001   2.889802640990E+001 
        2.867160200275E+001   2.842290126205E+001   2.815192421704E+001   2.785867091657E+001   2.754314144223E+001   2.720533593034E+001   2.684525460857E+001   2.646289785725E+001   2.605826631170E+001   2.563136103315E+001 
        2.518218379434E+001   2.471073755647E+001   2.421702726602E+001   2.370106118572E+001   2.316285311784E+001   2.260242611805E+001   2.201981869915E+001   2.141509519392E+001 
        3.386234653691E+001   3.368435132113E+001   3.350407226609E+001   3.332173399461E+001   3.313756112948E+001   3.295177829351E+001   3.276461010949E+001   3.257628120024E+001   3.238701618857E+001   3.219703969726E+001 
        3.200657634912E+001   3.181585076697E+001   3.162508757360E+001   3.143451139182E+001   3.124434684442E+001   3.105481855422E+001   3.086680212007E+001   3.068422605484E+001   3.050299337287E+001   3.032246295117E+001 
        3.014023433755E+001   2.992232187412E+001   2.967553145556E+001   2.941021000222E+001   2.913240864709E+001   2.884613764065E+001   2.855458610689E+001   2.826063023890E+001   2.796700325233E+001   2.767633319408E+001 
        2.739114233340E+001   2.711384324169E+001   2.684674101677E+001   2.659204189019E+001   2.635186623122E+001   2.612826436640E+001   2.592323510914E+001   2.574295429524E+001   2.567492517506E+001   2.573104887477E+001 
        2.585298568078E+001   2.598718580580E+001   2.611158890781E+001   2.622076474322E+001   2.631430007064E+001   2.639347669871E+001   2.646005858581E+001   2.651583478137E+001   2.656245062912E+001   2.660468987225E+001 
        2.664675135510E+001   2.668880476298E+001   2.673081633177E+001   2.677275141029E+001   2.681457390520E+001   2.685624569521E+001   2.689772599647E+001   2.693897065685E+001   2.697993135143E+001   2.702055464391E+001 
        2.706078086835E+001   2.710054277149E+001   2.713976383601E+001   2.717835617885E+001   2.721621788112E+001   2.725322955544E+001   2.728924988519E+001   2.732410977122E+001   2.735760458297E+001   2.738948381574E+001 
        2.741943718065E+001   2.744707576278E+001   2.747201858732E+001   2.749550932093E+001   2.751644413958E+001   2.752757148072E+001   2.753371480881E+001   2.754251508135E+001   2.755516150277E+001   2.757339527303E+001 
        2.759977999593E+001   2.763719539546E+001   2.768523770226E+001   2.774187322287E+001   2.780747690240E+001   2.788246187612E+001   2.796728207054E+001   2.806243506121E+001   2.816846520547E+001   2.828596706958E+001 
        2.841558917211E+001   2.855803806690E+001   2.871408279142E+001   2.887503404148E+001   2.900354438999E+001   2.910386075328E+001   2.918190073942E+001   2.923766434845E+001   2.927115158041E+001   2.928236243539E+001 
        2.927129691352E+001   2.923795501499E+001   2.918233674017E+001   2.910444208964E+001   2.900427106439E+001   2.888182366606E+001   2.873709989739E+001   2.857009976295E+001   2.838082327040E+001   2.816927043252E+001 
        2.793544127064E+001   2.767933582042E+001   2.740095414141E+001   2.710029633309E+001   2.677736256164E+001   2.643215310464E+001   2.606466842576E+001   2.567490929955E+001   2.526287701982E+001   2.482857374779E+001 
        2.437200309363E+001   2.389317108783E+001   2.339208780390E+001   2.286877006889E+001   2.232324599115E+001   2.175556252359E+001   2.116579809755E+001   2.055408372682E+001 
        3.392544488582E+001   3.375493431855E+001   3.358189326739E+001   3.340654635513E+001   3.322911820457E+001   3.304983343852E+001   3.286891667979E+001   3.268659255118E+001   3.250308567549E+001   3.231862067552E+001 
        3.213342217408E+001   3.194771479397E+001   3.176172315800E+001   3.157567188897E+001   3.138978560968E+001   3.120478678758E+001   3.102676774013E+001   3.085119400620E+001   3.067485436526E+001   3.049804125824E+001 
        3.032396571096E+001   3.013494642461E+001   2.990759673523E+001   2.965275023072E+001   2.937916450645E+001   2.909283419126E+001   2.879800959677E+001   2.849800770464E+001   2.819569492655E+001   2.789373505290E+001 
        2.759469736126E+001   2.730109228136E+001   2.701537552620E+001   2.673994236749E+001   2.647712177989E+001   2.622917362924E+001   2.599828894315E+001   2.578659211442E+001   2.559614377350E+001   2.542894358841E+001 
        2.529547354766E+001   2.520025190165E+001   2.513461828925E+001   2.508986107829E+001   2.505970067340E+001   2.503966023663E+001   2.502657689189E+001   2.501823376013E+001   2.501308886389E+001   2.500913317016E+001 
        2.500710278048E+001   2.500826129883E+001   2.501276337283E+001   2.502045620616E+001   2.503109470980E+001   2.504441273087E+001   2.506014980181E+001   2.507806155187E+001   2.509792339720E+001   2.511953126460E+001 
        2.514270096561E+001   2.516726696905E+001   2.519308093636E+001   2.522001020134E+001   2.524793628724E+001   2.527675350593E+001   2.530636765944E+001   2.533669485048E+001   2.536766040122E+001   2.539919787563E+001 
        2.543124819878E+001   2.546375886566E+001   2.549684333610E+001   2.553384690425E+001   2.557878720403E+001   2.563338913954E+001   2.569973934502E+001   2.578035394090E+001   2.587826040401E+001   2.599710207258E+001 
        2.614128085805E+001   2.631230624677E+001   2.649731214973E+001   2.668425433023E+001   2.687323878530E+001   2.706445313004E+001   2.725792724817E+001   2.745244774692E+001   2.763971780786E+001   2.777316742776E+001 
        2.788706180655E+001   2.801384730311E+001   2.815429861122E+001   2.829294910352E+001   2.840813702182E+001   2.850104856299E+001   2.857168372706E+001   2.862004251409E+001   2.864612492417E+001   2.864993095747E+001 
        2.863146061424E+001   2.859071389490E+001   2.852769080018E+001   2.844239133127E+001   2.833481549018E+001   2.820496328024E+001   2.805283470704E+001   2.787842977990E+001   2.768174851440E+001   2.746279093656E+001 
        2.722155708985E+001   2.695804704687E+001   2.667226092890E+001   2.636419893853E+001   2.603386141418E+001   2.568124892114E+001   2.530636240369E+001   2.490920343919E+001   2.448977466249E+001   2.404808047492E+001 
        2.358412822857E+001   2.309793020457E+001   2.258950691762E+001   2.205889263605E+001   2.150614460251E+001   2.093135843667E+001   2.033469386405E+001   1.971641769435E+001 
        3.397410248599E+001   3.381210486872E+001   3.364657264692E+001   3.347848791937E+001   3.330807530889E+001   3.313555943826E+001   3.296116493031E+001   3.278511640782E+001   3.260763849361E+001   3.242895581048E+001 
        3.224929298123E+001   3.206887462866E+001   3.188792537558E+001   3.170666984480E+001   3.152561377262E+001   3.135254672451E+001   3.118402553330E+001   3.101468902049E+001   3.084320976608E+001   3.067022651046E+001 
        3.049738135517E+001   3.032916247846E+001   3.012910021412E+001   2.989394886568E+001   2.963282884801E+001   2.935347495073E+001   2.906169591673E+001   2.876185595603E+001   2.845739517456E+001   2.815121692459E+001 
        2.784593877522E+001   2.754403858275E+001   2.724792983537E+001   2.695999424298E+001   2.668259139088E+001   2.641805781095E+001   2.616870190154E+001   2.593679671109E+001   2.572456923066E+001   2.553418161405E+001 
        2.537788533788E+001   2.526233117537E+001   2.517904106853E+001   2.511890841206E+001   2.507524697107E+001   2.504319033558E+001   2.501921231341E+001   2.500075870967E+001   2.498595835342E+001   2.497200093864E+001 
        2.495765669532E+001   2.494369142948E+001   2.493079375067E+001   2.491960235548E+001   2.491069028797E+001   2.490533270803E+001   2.490651294727E+001   2.491279018305E+001   2.492292814903E+001   2.493611647623E+001 
        2.495178577066E+001   2.496951435958E+001   2.498897725859E+001   2.500991629406E+001   2.503212157880E+001   2.505541944245E+001   2.507966421865E+001   2.510473243963E+001   2.513051859327E+001   2.515693193095E+001 
        2.518389400466E+001   2.521133672557E+001   2.523933644725E+001   2.527071631441E+001   2.530888768286E+001   2.535531656247E+001   2.541175881487E+001   2.548030352318E+001   2.556342124911E+001   2.566402135617E+001 
        2.578552610021E+001   2.592875301393E+001   2.608245238457E+001   2.623631968862E+001   2.639024020814E+001   2.654414402319E+001   2.669795348539E+001   2.685152600559E+001   2.700457254998E+001   2.715652853560E+001 
        2.730635572071E+001   2.745235571445E+001   2.759445154482E+001   2.772722293470E+001   2.783500603090E+001   2.792051275001E+001   2.798374309213E+001   2.802469705734E+001   2.804337464585E+001   2.803977585797E+001 
        2.801390069423E+001   2.796574915549E+001   2.789532124321E+001   2.780261695984E+001   2.768763630946E+001   2.755037929886E+001   2.739084593941E+001   2.720903625011E+001   2.700495026268E+001   2.677858803010E+001 
        2.652994964091E+001   2.625903524294E+001   2.596584508320E+001   2.565037957426E+001   2.531263940531E+001   2.495262572755E+001   2.457034046403E+001   2.416578682703E+001   2.373897018244E+001   2.328989949355E+001 
        2.281858973292E+001   2.232506591107E+001   2.180936980624E+001   2.127157120587E+001   2.071178668473E+001   2.013021097234E+001   1.952716934993E+001   1.890320517575E+001 