# TDIS file created on 2025/11/25 by ModelMuse version 5.4.0.0.

BEGIN OPTIONS
  TIME_UNITS seconds
END OPTIONS

BEGIN DIMENSIONS
  NPER     2
END DIMENSIONS

BEGIN PERIODDATA
    1.000000000000E+000      1  1.000000000000E+000  # perlen nstp tsmult, Stress period      1 Time = -1.000000000000E+000  -  0.000000000000E+000 
    4.320000000000E+005     36  1.400000000000E+000  # perlen nstp tsmult, Stress period      2 Time =  0.000000000000E+000  -  4.320000000000E+005 
END PERIODDATA
