# STO: Storage package file created on 2025/11/25 by ModelMuse version 5.4.0.0.
BEGIN OPTIONS
    SAVE_FLOWS
END OPTIONS

BEGIN GRIDDATA
  ICONVERT LAYERED IPRN     5
    CONSTANT      1 # ICONVERT 1
    CONSTANT      0 # ICONVERT 2
  SS LAYERED
    INTERNAL IPRN     12 # SS 1
        2.660000000000E-005   2.660000000000E-005   2.660000000000E-005   2.660000000000E-005   2.660000000000E-005   2.660000000000E-005   2.660000000000E-005   2.660000000000E-005   2.660000000000E-005   2.660000000000E-005 
        2.660000000000E-005   2.660000000000E-005   2.660000000000E-005   2.660000000000E-005   2.660000000000E-005   2.660000000000E-005   2.660000000000E-005   2.660000000000E-005   2.660000000000E-005   2.660000000000E-005 
        2.660000000000E-005   2.660000000000E-005   2.660000000000E-005   2.660000000000E-005   2.660000000000E-005   2.660000000000E-005   2.660000000000E-005   2.660000000000E-005   2.660000000000E-005   2.660000000000E-005 
        2.660000000000E-005   2.660000000000E-005   2.660000000000E-005   2.660000000000E-005   2.660000000000E-005   2.660000000000E-005   2.660000000000E-005   2.660000000000E-005   2.660000000000E-005   2.660000000000E-005 
        2.660000000000E-005   2.660000000000E-005   2.660000000000E-005   2.660000000000E-005   2.660000000000E-005   2.660000000000E-005   2.660000000000E-005   2.660000000000E-005   2.660000000000E-005   2.660000000000E-005 
        2.660000000000E-005   2.660000000000E-005   2.660000000000E-005   2.660000000000E-005   2.660000000000E-005   2.660000000000E-005   2.660000000000E-005   2.660000000000E-005   2.660000000000E-005   2.660000000000E-005 
        2.660000000000E-005   2.660000000000E-005   2.660000000000E-005   2.660000000000E-005   2.660000000000E-005   2.660000000000E-005   2.660000000000E-005   2.660000000000E-005   2.660000000000E-005   2.660000000000E-005 
        2.660000000000E-005   2.660000000000E-005   2.660000000000E-005   2.660000000000E-005   2.660000000000E-005   2.660000000000E-005   2.660000000000E-005   2.660000000000E-005   2.660000000000E-005   2.660000000000E-005 
        2.660000000000E-005   2.660000000000E-005   2.660000000000E-005   2.660000000000E-005   2.660000000000E-005   2.660000000000E-005   2.660000000000E-005   2.660000000000E-005   2.660000000000E-005   2.660000000000E-005 
        2.660000000000E-005   2.660000000000E-005   2.660000000000E-005   2.660000000000E-005   2.660000000000E-005   2.660000000000E-005   2.660000000000E-005   2.660000000000E-005   2.660000000000E-005   2.660000000000E-005 
        2.660000000000E-005   2.660000000000E-005   2.660000000000E-005   2.660000000000E-005   2.660000000000E-005   2.660000000000E-005   2.660000000000E-005   2.660000000000E-005   2.660000000000E-005   2.660000000000E-005 
        2.660000000000E-005   2.660000000000E-005   2.660000000000E-005   2.660000000000E-005   2.660000000000E-005   2.660000000000E-005   2.660000000000E-005   2.660000000000E-005   2.660000000000E-005   2.660000000000E-005 
        2.660000000000E-005   2.660000000000E-005   2.660000000000E-005   2.660000000000E-005   2.660000000000E-005   2.660000000000E-005   2.660000000000E-005   2.660000000000E-005 
        2.660000000000E-005   2.660000000000E-005   2.660000000000E-005   2.660000000000E-005   2.660000000000E-005   2.660000000000E-005   2.660000000000E-005   2.660000000000E-005   2.660000000000E-005   2.660000000000E-005 
        2.660000000000E-005   2.660000000000E-005   2.660000000000E-005   2.660000000000E-005   2.660000000000E-005   2.660000000000E-005   2.660000000000E-005   2.660000000000E-005   2.660000000000E-005   2.660000000000E-005 
        2.660000000000E-005   2.660000000000E-005   2.660000000000E-005   2.660000000000E-005   2.660000000000E-005   2.660000000000E-005   2.660000000000E-005   2.660000000000E-005   2.660000000000E-005   2.660000000000E-005 
        2.660000000000E-005   2.660000000000E-005   2.660000000000E-005   2.660000000000E-005   2.660000000000E-005   2.660000000000E-005   2.660000000000E-005   2.660000000000E-005   2.660000000000E-005   2.660000000000E-005 
        2.660000000000E-005   2.660000000000E-005   2.660000000000E-005   2.660000000000E-005   2.660000000000E-005   2.660000000000E-005   2.660000000000E-005   2.660000000000E-005   2.660000000000E-005   2.660000000000E-005 
        2.660000000000E-005   2.660000000000E-005   2.660000000000E-005   2.660000000000E-005   2.660000000000E-005   2.660000000000E-005   2.660000000000E-005   2.660000000000E-005   2.660000000000E-005   2.660000000000E-005 
        2.660000000000E-005   2.660000000000E-005   2.660000000000E-005   2.660000000000E-005   2.660000000000E-005   2.660000000000E-005   2.660000000000E-005   2.660000000000E-005   2.660000000000E-005   2.660000000000E-005 
        2.660000000000E-005   2.660000000000E-005   2.660000000000E-005   2.660000000000E-005   2.660000000000E-005   2.660000000000E-005   2.660000000000E-005   2.660000000000E-005   2.660000000000E-005   2.660000000000E-005 
        2.660000000000E-005   2.660000000000E-005   2.660000000000E-005   2.660000000000E-005   2.660000000000E-005   2.660000000000E-005   2.660000000000E-005   2.660000000000E-005   2.660000000000E-005   2.660000000000E-005 
        2.660000000000E-005   2.660000000000E-005   2.660000000000E-005   2.660000000000E-005   2.660000000000E-005   2.660000000000E-005   2.660000000000E-005   2.660000000000E-005   2.660000000000E-005   2.660000000000E-005 
        2.660000000000E-005   2.660000000000E-005   2.660000000000E-005   2.660000000000E-005   2.660000000000E-005   2.660000000000E-005   2.660000000000E-005   2.660000000000E-005   2.660000000000E-005   2.660000000000E-005 
        2.660000000000E-005   2.660000000000E-005   2.660000000000E-005   2.660000000000E-005   2.660000000000E-005   2.660000000000E-005   2.660000000000E-005   2.660000000000E-005   2.660000000000E-005   2.660000000000E-005 
        2.660000000000E-005   2.660000000000E-005   2.660000000000E-005   2.660000000000E-005   2.660000000000E-005   2.660000000000E-005   2.660000000000E-005   2.660000000000E-005 
        2.660000000000E-005   2.660000000000E-005   2.660000000000E-005   2.660000000000E-005   2.660000000000E-005   2.660000000000E-005   2.660000000000E-005   2.660000000000E-005   2.660000000000E-005   2.660000000000E-005 
        2.660000000000E-005   2.660000000000E-005   2.660000000000E-005   2.660000000000E-005   2.660000000000E-005   2.660000000000E-005   2.660000000000E-005   2.660000000000E-005   2.660000000000E-005   2.660000000000E-005 
        2.660000000000E-005   2.660000000000E-005   2.660000000000E-005   2.660000000000E-005   2.660000000000E-005   2.660000000000E-005   2.660000000000E-005   2.660000000000E-005   2.660000000000E-005   2.660000000000E-005 
        2.660000000000E-005   2.660000000000E-005   2.660000000000E-005   2.660000000000E-005   2.660000000000E-005   2.660000000000E-005   2.660000000000E-005   2.660000000000E-005   2.660000000000E-005   2.660000000000E-005 
        2.660000000000E-005   2.660000000000E-005   2.660000000000E-005   2.660000000000E-005   2.660000000000E-005   2.660000000000E-005   2.660000000000E-005   2.660000000000E-005   2.660000000000E-005   2.660000000000E-005 
        2.660000000000E-005   2.660000000000E-005   2.660000000000E-005   2.660000000000E-005   2.660000000000E-005   2.660000000000E-005   2.660000000000E-005   2.660000000000E-005   2.660000000000E-005   2.660000000000E-005 
        2.660000000000E-005   2.660000000000E-005   2.660000000000E-005   2.660000000000E-005   2.660000000000E-005   2.660000000000E-005   2.660000000000E-005   2.660000000000E-005   2.660000000000E-005   2.660000000000E-005 
        2.660000000000E-005   2.660000000000E-005   2.660000000000E-005   2.660000000000E-005   2.660000000000E-005   2.660000000000E-005   2.660000000000E-005   2.660000000000E-005   2.660000000000E-005   2.660000000000E-005 
        2.660000000000E-005   2.660000000000E-005   2.660000000000E-005   2.660000000000E-005   2.660000000000E-005   2.660000000000E-005   2.660000000000E-005   2.660000000000E-005   2.660000000000E-005   2.660000000000E-005 
        2.660000000000E-005   2.660000000000E-005   2.660000000000E-005   2.660000000000E-005   2.660000000000E-005   2.660000000000E-005   2.660000000000E-005   2.660000000000E-005   2.660000000000E-005   2.660000000000E-005 
        2.660000000000E-005   2.660000000000E-005   2.660000000000E-005   2.660000000000E-005   2.660000000000E-005   2.660000000000E-005   2.660000000000E-005   2.660000000000E-005   2.660000000000E-005   2.660000000000E-005 
        2.660000000000E-005   2.660000000000E-005   2.660000000000E-005   2.660000000000E-005   2.660000000000E-005   2.660000000000E-005   2.660000000000E-005   2.660000000000E-005   2.660000000000E-005   2.660000000000E-005 
        2.660000000000E-005   2.660000000000E-005   2.660000000000E-005   2.660000000000E-005   2.660000000000E-005   2.660000000000E-005   2.660000000000E-005   2.660000000000E-005 
        2.660000000000E-005   2.660000000000E-005   2.660000000000E-005   2.660000000000E-005   2.660000000000E-005   2.660000000000E-005   2.660000000000E-005   2.660000000000E-005   2.660000000000E-005   2.660000000000E-005 
        2.660000000000E-005   2.660000000000E-005   2.660000000000E-005   2.660000000000E-005   2.660000000000E-005   2.660000000000E-005   2.660000000000E-005   2.660000000000E-005   2.660000000000E-005   2.660000000000E-005 
        2.660000000000E-005   2.660000000000E-005   2.660000000000E-005   2.660000000000E-005   2.660000000000E-005   2.660000000000E-005   2.660000000000E-005   2.660000000000E-005   2.660000000000E-005   2.660000000000E-005 
        2.660000000000E-005   2.660000000000E-005   2.660000000000E-005   2.660000000000E-005   2.660000000000E-005   2.660000000000E-005   2.660000000000E-005   2.660000000000E-005   2.660000000000E-005   2.660000000000E-005 
        2.660000000000E-005   2.660000000000E-005   2.660000000000E-005   2.660000000000E-005   2.660000000000E-005   2.660000000000E-005   2.660000000000E-005   2.660000000000E-005   2.660000000000E-005   2.660000000000E-005 
        2.660000000000E-005   2.660000000000E-005   2.660000000000E-005   2.660000000000E-005   2.660000000000E-005   2.660000000000E-005   2.660000000000E-005   2.660000000000E-005   2.660000000000E-005   2.660000000000E-005 
        2.660000000000E-005   2.660000000000E-005   2.660000000000E-005   2.660000000000E-005   2.660000000000E-005   2.660000000000E-005   2.660000000000E-005   2.660000000000E-005   2.660000000000E-005   2.660000000000E-005 
        2.660000000000E-005   2.660000000000E-005   2.660000000000E-005   2.660000000000E-005   2.660000000000E-005   2.660000000000E-005   2.660000000000E-005   2.660000000000E-005   2.660000000000E-005   2.660000000000E-005 
        2.660000000000E-005   2.660000000000E-005   2.660000000000E-005   2.660000000000E-005   2.660000000000E-005   2.660000000000E-005   2.660000000000E-005   2.660000000000E-005   2.660000000000E-005   2.660000000000E-005 
        2.660000000000E-005   2.660000000000E-005   2.660000000000E-005   2.660000000000E-005   2.660000000000E-005   2.660000000000E-005   2.660000000000E-005   2.660000000000E-005   2.660000000000E-005   2.660000000000E-005 
        2.660000000000E-005   2.660000000000E-005   2.660000000000E-005   2.660000000000E-005   2.660000000000E-005   2.660000000000E-005   2.660000000000E-005   2.660000000000E-005   2.660000000000E-005   2.660000000000E-005 
        2.660000000000E-005   2.660000000000E-005   2.660000000000E-005   2.660000000000E-005   2.660000000000E-005   2.660000000000E-005   2.660000000000E-005   2.660000000000E-005   2.660000000000E-005   2.660000000000E-005 
        2.660000000000E-005   2.660000000000E-005   2.660000000000E-005   2.660000000000E-005   2.660000000000E-005   2.660000000000E-005   2.660000000000E-005   2.660000000000E-005 
        2.660000000000E-005   2.660000000000E-005   2.660000000000E-005   2.660000000000E-005   2.660000000000E-005   2.660000000000E-005   2.660000000000E-005   2.660000000000E-005   2.660000000000E-005   2.660000000000E-005 
        2.660000000000E-005   2.660000000000E-005   2.660000000000E-005   2.660000000000E-005   2.660000000000E-005   2.660000000000E-005   2.660000000000E-005   2.660000000000E-005   2.660000000000E-005   2.660000000000E-005 
        2.660000000000E-005   2.660000000000E-005   2.660000000000E-005   2.660000000000E-005   2.660000000000E-005   2.660000000000E-005   2.660000000000E-005   2.660000000000E-005   2.660000000000E-005   2.660000000000E-005 
        2.660000000000E-005   2.660000000000E-005   2.660000000000E-005   2.660000000000E-005   2.660000000000E-005   2.660000000000E-005   2.660000000000E-005   2.660000000000E-005   2.660000000000E-005   2.660000000000E-005 
        2.660000000000E-005   2.660000000000E-005   2.660000000000E-005   2.660000000000E-005   2.660000000000E-005   2.660000000000E-005   2.660000000000E-005   2.660000000000E-005   2.660000000000E-005   2.660000000000E-005 
        2.660000000000E-005   2.660000000000E-005   2.660000000000E-005   2.660000000000E-005   2.660000000000E-005   2.660000000000E-005   2.660000000000E-005   2.660000000000E-005   2.660000000000E-005   2.660000000000E-005 
        2.660000000000E-005   2.660000000000E-005   2.660000000000E-005   2.660000000000E-005   2.660000000000E-005   2.660000000000E-005   2.660000000000E-005   2.660000000000E-005   2.660000000000E-005   2.660000000000E-005 
        2.660000000000E-005   2.660000000000E-005   2.660000000000E-005   2.660000000000E-005   2.660000000000E-005   2.660000000000E-005   2.660000000000E-005   2.660000000000E-005   2.660000000000E-005   2.660000000000E-005 
        2.660000000000E-005   2.660000000000E-005   2.660000000000E-005   2.660000000000E-005   2.660000000000E-005   2.660000000000E-005   2.660000000000E-005   2.660000000000E-005   2.660000000000E-005   2.660000000000E-005 
        2.660000000000E-005   2.660000000000E-005   2.660000000000E-005   2.660000000000E-005   2.660000000000E-005   2.660000000000E-005   2.660000000000E-005   2.660000000000E-005   2.660000000000E-005   2.660000000000E-005 
        2.660000000000E-005   2.660000000000E-005   2.660000000000E-005   2.660000000000E-005   2.660000000000E-005   2.660000000000E-005   2.660000000000E-005   2.660000000000E-005   2.660000000000E-005   2.660000000000E-005 
        2.660000000000E-005   2.660000000000E-005   2.660000000000E-005   2.660000000000E-005   2.660000000000E-005   2.660000000000E-005   2.660000000000E-005   2.660000000000E-005   2.660000000000E-005   2.660000000000E-005 
        2.660000000000E-005   2.660000000000E-005   2.660000000000E-005   2.660000000000E-005   2.660000000000E-005   2.660000000000E-005   2.660000000000E-005   2.660000000000E-005 
        2.660000000000E-005   2.660000000000E-005   2.660000000000E-005   2.660000000000E-005   2.660000000000E-005   2.660000000000E-005   2.660000000000E-005   2.660000000000E-005   2.660000000000E-005   2.660000000000E-005 
        2.660000000000E-005   2.660000000000E-005   2.660000000000E-005   2.660000000000E-005   2.660000000000E-005   2.660000000000E-005   2.660000000000E-005   2.660000000000E-005   2.660000000000E-005   2.660000000000E-005 
        2.660000000000E-005   2.660000000000E-005   2.660000000000E-005   2.660000000000E-005   2.660000000000E-005   2.660000000000E-005   2.660000000000E-005   2.660000000000E-005   2.660000000000E-005   2.660000000000E-005 
        2.660000000000E-005   2.660000000000E-005   2.660000000000E-005   2.660000000000E-005   2.660000000000E-005   2.660000000000E-005   2.660000000000E-005   2.660000000000E-005   2.660000000000E-005   2.660000000000E-005 
        2.660000000000E-005   2.660000000000E-005   2.660000000000E-005   2.660000000000E-005   2.660000000000E-005   2.660000000000E-005   2.660000000000E-005   2.660000000000E-005   2.660000000000E-005   2.660000000000E-005 
        2.660000000000E-005   2.660000000000E-005   2.660000000000E-005   2.660000000000E-005   2.660000000000E-005   2.660000000000E-005   2.660000000000E-005   2.660000000000E-005   2.660000000000E-005   2.660000000000E-005 
        2.660000000000E-005   2.660000000000E-005   2.660000000000E-005   2.660000000000E-005   2.660000000000E-005   2.660000000000E-005   2.660000000000E-005   2.660000000000E-005   2.660000000000E-005   2.660000000000E-005 
        2.660000000000E-005   2.660000000000E-005   2.660000000000E-005   2.660000000000E-005   2.660000000000E-005   2.660000000000E-005   2.660000000000E-005   2.660000000000E-005   2.660000000000E-005   2.660000000000E-005 
        2.660000000000E-005   2.660000000000E-005   2.660000000000E-005   2.660000000000E-005   2.660000000000E-005   2.660000000000E-005   2.660000000000E-005   2.660000000000E-005   2.660000000000E-005   2.660000000000E-005 
        2.660000000000E-005   2.660000000000E-005   2.660000000000E-005   2.660000000000E-005   2.660000000000E-005   2.660000000000E-005   2.660000000000E-005   2.660000000000E-005   2.660000000000E-005   2.660000000000E-005 
        2.660000000000E-005   2.660000000000E-005   2.660000000000E-005   2.660000000000E-005   2.660000000000E-005   2.660000000000E-005   2.660000000000E-005   2.660000000000E-005   2.660000000000E-005   2.660000000000E-005 
        2.660000000000E-005   2.660000000000E-005   2.660000000000E-005   2.660000000000E-005   2.660000000000E-005   2.660000000000E-005   2.660000000000E-005   2.660000000000E-005   2.660000000000E-005   2.660000000000E-005 
        2.660000000000E-005   2.660000000000E-005   2.660000000000E-005   2.660000000000E-005   2.660000000000E-005   2.660000000000E-005   2.660000000000E-005   2.660000000000E-005 
        2.660000000000E-005   2.660000000000E-005   2.660000000000E-005   2.660000000000E-005   2.660000000000E-005   2.660000000000E-005   2.660000000000E-005   2.660000000000E-005   2.660000000000E-005   2.660000000000E-005 
        2.660000000000E-005   2.660000000000E-005   2.660000000000E-005   2.660000000000E-005   2.660000000000E-005   2.660000000000E-005   2.660000000000E-005   2.660000000000E-005   2.660000000000E-005   2.660000000000E-005 
        2.660000000000E-005   2.660000000000E-005   2.660000000000E-005   2.660000000000E-005   2.660000000000E-005   2.660000000000E-005   2.660000000000E-005   2.660000000000E-005   2.660000000000E-005   2.660000000000E-005 
        2.660000000000E-005   2.660000000000E-005   2.660000000000E-005   2.660000000000E-005   2.660000000000E-005   2.660000000000E-005   2.660000000000E-005   2.660000000000E-005   2.660000000000E-005   2.660000000000E-005 
        2.660000000000E-005   2.660000000000E-005   2.660000000000E-005   2.660000000000E-005   2.660000000000E-005   2.660000000000E-005   2.660000000000E-005   2.660000000000E-005   2.660000000000E-005   2.660000000000E-005 
        2.660000000000E-005   2.660000000000E-005   2.660000000000E-005   2.660000000000E-005   2.660000000000E-005   2.660000000000E-005   2.660000000000E-005   2.660000000000E-005   2.660000000000E-005   2.660000000000E-005 
        2.660000000000E-005   2.660000000000E-005   2.660000000000E-005   2.660000000000E-005   2.660000000000E-005   2.660000000000E-005   2.660000000000E-005   2.660000000000E-005   2.660000000000E-005   2.660000000000E-005 
        2.660000000000E-005   2.660000000000E-005   2.660000000000E-005   2.660000000000E-005   2.660000000000E-005   2.660000000000E-005   2.660000000000E-005   2.660000000000E-005   2.660000000000E-005   2.660000000000E-005 
        2.660000000000E-005   2.660000000000E-005   2.660000000000E-005   2.660000000000E-005   2.660000000000E-005   2.660000000000E-005   2.660000000000E-005   2.660000000000E-005   2.660000000000E-005   2.660000000000E-005 
        2.660000000000E-005   2.660000000000E-005   2.660000000000E-005   2.660000000000E-005   2.660000000000E-005   2.660000000000E-005   2.660000000000E-005   2.660000000000E-005   2.660000000000E-005   2.660000000000E-005 
        2.660000000000E-005   2.660000000000E-005   2.660000000000E-005   2.660000000000E-005   2.660000000000E-005   2.660000000000E-005   2.660000000000E-005   2.660000000000E-005   2.660000000000E-005   2.660000000000E-005 
        2.660000000000E-005   2.660000000000E-005   2.660000000000E-005   2.660000000000E-005   2.660000000000E-005   2.660000000000E-005   2.660000000000E-005   2.660000000000E-005   2.660000000000E-005   2.660000000000E-005 
        2.660000000000E-005   2.660000000000E-005   2.660000000000E-005   2.660000000000E-005   2.660000000000E-005   2.660000000000E-005   2.660000000000E-005   2.660000000000E-005 
        2.660000000000E-005   2.660000000000E-005   1.700000000000E-004   1.700000000000E-004   1.700000000000E-004   1.700000000000E-004   1.700000000000E-004   1.700000000000E-004   2.660000000000E-005   2.660000000000E-005 
        2.660000000000E-005   2.660000000000E-005   2.660000000000E-005   2.660000000000E-005   2.660000000000E-005   2.660000000000E-005   2.660000000000E-005   2.660000000000E-005   2.660000000000E-005   2.660000000000E-005 
        2.660000000000E-005   2.660000000000E-005   2.660000000000E-005   2.660000000000E-005   2.660000000000E-005   2.660000000000E-005   2.660000000000E-005   2.660000000000E-005   2.660000000000E-005   2.660000000000E-005 
        2.660000000000E-005   2.660000000000E-005   2.660000000000E-005   2.660000000000E-005   2.660000000000E-005   2.660000000000E-005   2.660000000000E-005   2.660000000000E-005   2.660000000000E-005   2.660000000000E-005 
        2.660000000000E-005   2.660000000000E-005   2.660000000000E-005   2.660000000000E-005   2.660000000000E-005   2.660000000000E-005   2.660000000000E-005   2.660000000000E-005   2.660000000000E-005   2.660000000000E-005 
        2.660000000000E-005   2.660000000000E-005   2.660000000000E-005   2.660000000000E-005   2.660000000000E-005   2.660000000000E-005   2.660000000000E-005   2.660000000000E-005   2.660000000000E-005   2.660000000000E-005 
        2.660000000000E-005   2.660000000000E-005   2.660000000000E-005   2.660000000000E-005   2.660000000000E-005   2.660000000000E-005   2.660000000000E-005   2.660000000000E-005   2.660000000000E-005   2.660000000000E-005 
        2.660000000000E-005   2.660000000000E-005   2.660000000000E-005   2.660000000000E-005   2.660000000000E-005   2.660000000000E-005   2.660000000000E-005   2.660000000000E-005   2.660000000000E-005   2.660000000000E-005 
        2.660000000000E-005   2.660000000000E-005   2.660000000000E-005   2.660000000000E-005   2.660000000000E-005   2.660000000000E-005   2.660000000000E-005   2.660000000000E-005   2.660000000000E-005   2.660000000000E-005 
        2.660000000000E-005   2.660000000000E-005   2.660000000000E-005   2.660000000000E-005   2.660000000000E-005   2.660000000000E-005   2.660000000000E-005   2.660000000000E-005   2.660000000000E-005   2.660000000000E-005 
        2.660000000000E-005   2.660000000000E-005   2.660000000000E-005   2.660000000000E-005   2.660000000000E-005   2.660000000000E-005   2.660000000000E-005   2.660000000000E-005   2.660000000000E-005   2.660000000000E-005 
        2.660000000000E-005   2.660000000000E-005   2.660000000000E-005   2.660000000000E-005   2.660000000000E-005   2.660000000000E-005   2.660000000000E-005   2.660000000000E-005   2.660000000000E-005   2.660000000000E-005 
        2.660000000000E-005   2.660000000000E-005   2.660000000000E-005   2.660000000000E-005   2.660000000000E-005   2.660000000000E-005   2.660000000000E-005   2.660000000000E-005 
        2.660000000000E-005   2.660000000000E-005   2.660000000000E-005   1.700000000000E-004   1.700000000000E-004   1.700000000000E-004   1.700000000000E-004   1.700000000000E-004   1.700000000000E-004   1.700000000000E-004 
        1.700000000000E-004   1.700000000000E-004   1.700000000000E-004   1.700000000000E-004   1.700000000000E-004   1.700000000000E-004   1.700000000000E-004   1.700000000000E-004   1.700000000000E-004   1.700000000000E-004 
        1.700000000000E-004   2.660000000000E-005   2.660000000000E-005   2.660000000000E-005   2.660000000000E-005   2.660000000000E-005   2.660000000000E-005   2.660000000000E-005   2.660000000000E-005   2.660000000000E-005 
        2.660000000000E-005   2.660000000000E-005   2.660000000000E-005   2.660000000000E-005   2.660000000000E-005   2.660000000000E-005   2.660000000000E-005   2.660000000000E-005   2.660000000000E-005   2.660000000000E-005 
        2.660000000000E-005   2.660000000000E-005   2.660000000000E-005   2.660000000000E-005   2.660000000000E-005   2.660000000000E-005   2.660000000000E-005   2.660000000000E-005   2.660000000000E-005   2.660000000000E-005 
        2.660000000000E-005   2.660000000000E-005   2.660000000000E-005   2.660000000000E-005   2.660000000000E-005   2.660000000000E-005   2.660000000000E-005   2.660000000000E-005   2.660000000000E-005   2.660000000000E-005 
        2.660000000000E-005   2.660000000000E-005   2.660000000000E-005   2.660000000000E-005   2.660000000000E-005   2.660000000000E-005   2.660000000000E-005   2.660000000000E-005   2.660000000000E-005   2.660000000000E-005 
        2.660000000000E-005   2.660000000000E-005   2.660000000000E-005   2.660000000000E-005   2.660000000000E-005   2.660000000000E-005   2.660000000000E-005   2.660000000000E-005   2.660000000000E-005   2.660000000000E-005 
        2.660000000000E-005   2.660000000000E-005   2.660000000000E-005   2.660000000000E-005   2.660000000000E-005   2.660000000000E-005   2.660000000000E-005   2.660000000000E-005   2.660000000000E-005   2.660000000000E-005 
        2.660000000000E-005   2.660000000000E-005   2.660000000000E-005   2.660000000000E-005   2.660000000000E-005   2.660000000000E-005   2.660000000000E-005   2.660000000000E-005   2.660000000000E-005   2.660000000000E-005 
        2.660000000000E-005   2.660000000000E-005   2.660000000000E-005   2.660000000000E-005   2.660000000000E-005   2.660000000000E-005   2.660000000000E-005   2.660000000000E-005   2.660000000000E-005   2.660000000000E-005 
        2.660000000000E-005   2.660000000000E-005   2.660000000000E-005   2.660000000000E-005   2.660000000000E-005   2.660000000000E-005   2.660000000000E-005   2.660000000000E-005   2.660000000000E-005   2.660000000000E-005 
        2.660000000000E-005   2.660000000000E-005   2.660000000000E-005   2.660000000000E-005   2.660000000000E-005   2.660000000000E-005   2.660000000000E-005   2.660000000000E-005 
        2.660000000000E-005   2.660000000000E-005   2.660000000000E-005   1.700000000000E-004   1.700000000000E-004   1.700000000000E-004   1.700000000000E-004   1.700000000000E-004   1.700000000000E-004   1.700000000000E-004 
        1.700000000000E-004   1.700000000000E-004   1.700000000000E-004   1.700000000000E-004   1.700000000000E-004   1.700000000000E-004   1.700000000000E-004   1.700000000000E-004   1.700000000000E-004   1.700000000000E-004 
        1.700000000000E-004   1.700000000000E-004   2.660000000000E-005   2.660000000000E-005   2.660000000000E-005   2.660000000000E-005   2.660000000000E-005   2.660000000000E-005   2.660000000000E-005   2.660000000000E-005 
        2.660000000000E-005   2.660000000000E-005   2.660000000000E-005   2.660000000000E-005   2.660000000000E-005   2.660000000000E-005   2.660000000000E-005   2.660000000000E-005   2.660000000000E-005   2.660000000000E-005 
        2.660000000000E-005   2.660000000000E-005   2.660000000000E-005   2.660000000000E-005   2.660000000000E-005   2.660000000000E-005   2.660000000000E-005   2.660000000000E-005   2.660000000000E-005   2.660000000000E-005 
        2.660000000000E-005   2.660000000000E-005   2.660000000000E-005   2.660000000000E-005   2.660000000000E-005   2.660000000000E-005   2.660000000000E-005   2.660000000000E-005   2.660000000000E-005   2.660000000000E-005 
        2.660000000000E-005   2.660000000000E-005   2.660000000000E-005   2.660000000000E-005   2.660000000000E-005   2.660000000000E-005   2.660000000000E-005   2.660000000000E-005   2.660000000000E-005   2.660000000000E-005 
        2.660000000000E-005   2.660000000000E-005   2.660000000000E-005   2.660000000000E-005   2.660000000000E-005   2.660000000000E-005   2.660000000000E-005   2.660000000000E-005   2.660000000000E-005   2.660000000000E-005 
        2.660000000000E-005   2.660000000000E-005   2.660000000000E-005   2.660000000000E-005   2.660000000000E-005   2.660000000000E-005   2.660000000000E-005   2.660000000000E-005   2.660000000000E-005   2.660000000000E-005 
        2.660000000000E-005   2.660000000000E-005   2.660000000000E-005   2.660000000000E-005   2.660000000000E-005   2.660000000000E-005   2.660000000000E-005   2.660000000000E-005   2.660000000000E-005   2.660000000000E-005 
        2.660000000000E-005   2.660000000000E-005   2.660000000000E-005   2.660000000000E-005   2.660000000000E-005   2.660000000000E-005   2.660000000000E-005   2.660000000000E-005   2.660000000000E-005   2.660000000000E-005 
        2.660000000000E-005   2.660000000000E-005   2.660000000000E-005   2.660000000000E-005   2.660000000000E-005   2.660000000000E-005   2.660000000000E-005   2.660000000000E-005   2.660000000000E-005   2.660000000000E-005 
        2.660000000000E-005   2.660000000000E-005   2.660000000000E-005   2.660000000000E-005   2.660000000000E-005   2.660000000000E-005   2.660000000000E-005   2.660000000000E-005 
        2.660000000000E-005   2.660000000000E-005   2.660000000000E-005   1.700000000000E-004   1.700000000000E-004   1.700000000000E-004   1.700000000000E-004   1.700000000000E-004   1.700000000000E-004   1.700000000000E-004 
        1.700000000000E-004   1.700000000000E-004   1.700000000000E-004   1.700000000000E-004   1.700000000000E-004   1.700000000000E-004   1.700000000000E-004   1.700000000000E-004   1.700000000000E-004   1.700000000000E-004 