BEGIN OPTIONS
  PRINT_INPUT
END OPTIONS

BEGIN TIMING
  TDIS6 'Transient_cali.tdis'
END TIMING

BEGIN MODELS
  GWF6 'Transient_cali.nam' 'MODFLOW'
END MODELS

BEGIN EXCHANGES
END EXCHANGES

BEGIN SOLUTIONGROUP     1
  MXITER     1
  IMS6 'Transient_cali.ims' 'MODFLOW' 
END SOLUTIONGROUP

