# Initial Conditions Package file created on 2025/11/17 by ModelMuse version 5.4.0.0.
BEGIN OPTIONS
END OPTIONS

BEGIN GRIDDATA
  STRT LAYERED IPRN    12
    CONSTANT   3.740000000000E+001  # STRT Upper Aquifer

    CONSTANT   3.740000000000E+001  # STRT Lower Aquifer

END GRIDDATA

