# NPF: Node Property Flow package file created on 2025/11/17 by ModelMuse version 5.4.0.0.
BEGIN OPTIONS
    SAVE_FLOWS
  SAVE_SPECIFIC_DISCHARGE
  SAVE_SATURATION
END OPTIONS


BEGIN GRIDDATA
  ICELLTYPE LAYERED IPRN     5
    CONSTANT      1 # ICELLTYPE 1
    CONSTANT      0 # ICELLTYPE 2
  K LAYERED
    INTERNAL IPRN     12 # K 1
        9.000000000000E-004   9.000000000000E-004   9.000000000000E-004   9.000000000000E-004   9.000000000000E-004   9.000000000000E-004   9.000000000000E-004   9.000000000000E-004   9.000000000000E-004   9.000000000000E-004 
        9.000000000000E-004   9.000000000000E-004   9.000000000000E-004   9.000000000000E-004   9.000000000000E-004   9.000000000000E-004   9.000000000000E-004   9.000000000000E-004   9.000000000000E-004   9.000000000000E-004 
        9.000000000000E-004   9.000000000000E-004   9.000000000000E-004   9.000000000000E-004   9.000000000000E-004   9.000000000000E-004   9.000000000000E-004   9.000000000000E-004   9.000000000000E-004   9.000000000000E-004 
        9.000000000000E-004   9.000000000000E-004   9.000000000000E-004   9.000000000000E-004   9.000000000000E-004   9.000000000000E-004   9.000000000000E-004   9.000000000000E-004   9.000000000000E-004   9.000000000000E-004 
        9.000000000000E-004   9.000000000000E-004   9.000000000000E-004   9.000000000000E-004   9.000000000000E-004   9.000000000000E-004   9.000000000000E-004   9.000000000000E-004   9.000000000000E-004   9.000000000000E-004 
        9.000000000000E-004   9.000000000000E-004   9.000000000000E-004   9.000000000000E-004   9.000000000000E-004   9.000000000000E-004   9.000000000000E-004   9.000000000000E-004   9.000000000000E-004   9.000000000000E-004 
        9.000000000000E-004   9.000000000000E-004   9.000000000000E-004   9.000000000000E-004   9.000000000000E-004   9.000000000000E-004   9.000000000000E-004   9.000000000000E-004   9.000000000000E-004   9.000000000000E-004 
        9.000000000000E-004   9.000000000000E-004   9.000000000000E-004   9.000000000000E-004   9.000000000000E-004   9.000000000000E-004   9.000000000000E-004   9.000000000000E-004   9.000000000000E-004   9.000000000000E-004 
        9.000000000000E-004   9.000000000000E-004   9.000000000000E-004   9.000000000000E-004   9.000000000000E-004   9.000000000000E-004   9.000000000000E-004   9.000000000000E-004   9.000000000000E-004   9.000000000000E-004 
        9.000000000000E-004   9.000000000000E-004   9.000000000000E-004   9.000000000000E-004   9.000000000000E-004   9.000000000000E-004   9.000000000000E-004   9.000000000000E-004   9.000000000000E-004   9.000000000000E-004 
        9.000000000000E-004   9.000000000000E-004   9.000000000000E-004   9.000000000000E-004   9.000000000000E-004   9.000000000000E-004   9.000000000000E-004   9.000000000000E-004   9.000000000000E-004   9.000000000000E-004 
        9.000000000000E-004   9.000000000000E-004   9.000000000000E-004   9.000000000000E-004   9.000000000000E-004   9.000000000000E-004   9.000000000000E-004   9.000000000000E-004   9.000000000000E-004   9.000000000000E-004 
        9.000000000000E-004   9.000000000000E-004   9.000000000000E-004   9.000000000000E-004   9.000000000000E-004   9.000000000000E-004   9.000000000000E-004   9.000000000000E-004 
        9.000000000000E-004   9.000000000000E-004   9.000000000000E-004   9.000000000000E-004   9.000000000000E-004   9.000000000000E-004   9.000000000000E-004   9.000000000000E-004   9.000000000000E-004   9.000000000000E-004 
        9.000000000000E-004   9.000000000000E-004   9.000000000000E-004   9.000000000000E-004   9.000000000000E-004   9.000000000000E-004   9.000000000000E-004   9.000000000000E-004   9.000000000000E-004   9.000000000000E-004 
        9.000000000000E-004   9.000000000000E-004   9.000000000000E-004   9.000000000000E-004   9.000000000000E-004   9.000000000000E-004   9.000000000000E-004   9.000000000000E-004   9.000000000000E-004   9.000000000000E-004 
        9.000000000000E-004   9.000000000000E-004   9.000000000000E-004   9.000000000000E-004   9.000000000000E-004   9.000000000000E-004   9.000000000000E-004   9.000000000000E-004   9.000000000000E-004   9.000000000000E-004 
        9.000000000000E-004   9.000000000000E-004   9.000000000000E-004   9.000000000000E-004   9.000000000000E-004   9.000000000000E-004   9.000000000000E-004   9.000000000000E-004   9.000000000000E-004   9.000000000000E-004 
        9.000000000000E-004   9.000000000000E-004   9.000000000000E-004   9.000000000000E-004   9.000000000000E-004   9.000000000000E-004   9.000000000000E-004   9.000000000000E-004   9.000000000000E-004   9.000000000000E-004 
        9.000000000000E-004   9.000000000000E-004   9.000000000000E-004   9.000000000000E-004   9.000000000000E-004   9.000000000000E-004   9.000000000000E-004   9.000000000000E-004   9.000000000000E-004   9.000000000000E-004 
        9.000000000000E-004   9.000000000000E-004   9.000000000000E-004   9.000000000000E-004   9.000000000000E-004   9.000000000000E-004   9.000000000000E-004   9.000000000000E-004   9.000000000000E-004   9.000000000000E-004 
        9.000000000000E-004   9.000000000000E-004   9.000000000000E-004   9.000000000000E-004   9.000000000000E-004   9.000000000000E-004   9.000000000000E-004   9.000000000000E-004   9.000000000000E-004   9.000000000000E-004 
        9.000000000000E-004   9.000000000000E-004   9.000000000000E-004   9.000000000000E-004   9.000000000000E-004   9.000000000000E-004   9.000000000000E-004   9.000000000000E-004   9.000000000000E-004   9.000000000000E-004 
        9.000000000000E-004   9.000000000000E-004   9.000000000000E-004   9.000000000000E-004   9.000000000000E-004   9.000000000000E-004   9.000000000000E-004   9.000000000000E-004   9.000000000000E-004   9.000000000000E-004 
        9.000000000000E-004   9.000000000000E-004   9.000000000000E-004   9.000000000000E-004   9.000000000000E-004   9.000000000000E-004   9.000000000000E-004   9.000000000000E-004   9.000000000000E-004   9.000000000000E-004 
        9.000000000000E-004   9.000000000000E-004   9.000000000000E-004   9.000000000000E-004   9.000000000000E-004   9.000000000000E-004   9.000000000000E-004   9.000000000000E-004 
        9.000000000000E-004   9.000000000000E-004   9.000000000000E-004   9.000000000000E-004   9.000000000000E-004   9.000000000000E-004   9.000000000000E-004   9.000000000000E-004   9.000000000000E-004   9.000000000000E-004 
        9.000000000000E-004   9.000000000000E-004   9.000000000000E-004   9.000000000000E-004   9.000000000000E-004   9.000000000000E-004   9.000000000000E-004   9.000000000000E-004   9.000000000000E-004   9.000000000000E-004 
        9.000000000000E-004   9.000000000000E-004   9.000000000000E-004   9.000000000000E-004   9.000000000000E-004   9.000000000000E-004   9.000000000000E-004   9.000000000000E-004   9.000000000000E-004   9.000000000000E-004 
        9.000000000000E-004   9.000000000000E-004   9.000000000000E-004   9.000000000000E-004   9.000000000000E-004   9.000000000000E-004   9.000000000000E-004   9.000000000000E-004   9.000000000000E-004   9.000000000000E-004 
        9.000000000000E-004   9.000000000000E-004   9.000000000000E-004   9.000000000000E-004   9.000000000000E-004   9.000000000000E-004   9.000000000000E-004   9.000000000000E-004   9.000000000000E-004   9.000000000000E-004 
        9.000000000000E-004   9.000000000000E-004   9.000000000000E-004   9.000000000000E-004   9.000000000000E-004   9.000000000000E-004   9.000000000000E-004   9.000000000000E-004   9.000000000000E-004   9.000000000000E-004 
        9.000000000000E-004   9.000000000000E-004   9.000000000000E-004   9.000000000000E-004   9.000000000000E-004   9.000000000000E-004   9.000000000000E-004   9.000000000000E-004   9.000000000000E-004   9.000000000000E-004 
        9.000000000000E-004   9.000000000000E-004   9.000000000000E-004   9.000000000000E-004   9.000000000000E-004   9.000000000000E-004   9.000000000000E-004   9.000000000000E-004   9.000000000000E-004   9.000000000000E-004 
        9.000000000000E-004   9.000000000000E-004   9.000000000000E-004   9.000000000000E-004   9.000000000000E-004   9.000000000000E-004   9.000000000000E-004   9.000000000000E-004   9.000000000000E-004   9.000000000000E-004 
        9.000000000000E-004   9.000000000000E-004   9.000000000000E-004   9.000000000000E-004   9.000000000000E-004   9.000000000000E-004   9.000000000000E-004   9.000000000000E-004   9.000000000000E-004   9.000000000000E-004 
        9.000000000000E-004   9.000000000000E-004   9.000000000000E-004   9.000000000000E-004   9.000000000000E-004   9.000000000000E-004   9.000000000000E-004   9.000000000000E-004   9.000000000000E-004   9.000000000000E-004 
        9.000000000000E-004   9.000000000000E-004   9.000000000000E-004   9.000000000000E-004   9.000000000000E-004   9.000000000000E-004   9.000000000000E-004   9.000000000000E-004   9.000000000000E-004   9.000000000000E-004 
        9.000000000000E-004   9.000000000000E-004   9.000000000000E-004   9.000000000000E-004   9.000000000000E-004   9.000000000000E-004   9.000000000000E-004   9.000000000000E-004 
        9.000000000000E-004   9.000000000000E-004   9.000000000000E-004   9.000000000000E-004   9.000000000000E-004   9.000000000000E-004   9.000000000000E-004   9.000000000000E-004   9.000000000000E-004   9.000000000000E-004 
        9.000000000000E-004   9.000000000000E-004   9.000000000000E-004   9.000000000000E-004   9.000000000000E-004   9.000000000000E-004   9.000000000000E-004   9.000000000000E-004   9.000000000000E-004   9.000000000000E-004 
        9.000000000000E-004   9.000000000000E-004   9.000000000000E-004   9.000000000000E-004   9.000000000000E-004   9.000000000000E-004   9.000000000000E-004   9.000000000000E-004   9.000000000000E-004   9.000000000000E-004 
        9.000000000000E-004   9.000000000000E-004   9.000000000000E-004   9.000000000000E-004   9.000000000000E-004   9.000000000000E-004   9.000000000000E-004   9.000000000000E-004   9.000000000000E-004   9.000000000000E-004 
        9.000000000000E-004   9.000000000000E-004   9.000000000000E-004   9.000000000000E-004   9.000000000000E-004   9.000000000000E-004   9.000000000000E-004   9.000000000000E-004   9.000000000000E-004   9.000000000000E-004 
        9.000000000000E-004   9.000000000000E-004   9.000000000000E-004   9.000000000000E-004   9.000000000000E-004   9.000000000000E-004   9.000000000000E-004   9.000000000000E-004   9.000000000000E-004   9.000000000000E-004 
        9.000000000000E-004   9.000000000000E-004   9.000000000000E-004   9.000000000000E-004   9.000000000000E-004   9.000000000000E-004   9.000000000000E-004   9.000000000000E-004   9.000000000000E-004   9.000000000000E-004 
        9.000000000000E-004   9.000000000000E-004   9.000000000000E-004   9.000000000000E-004   9.000000000000E-004   9.000000000000E-004   9.000000000000E-004   9.000000000000E-004   9.000000000000E-004   9.000000000000E-004 
        9.000000000000E-004   9.000000000000E-004   9.000000000000E-004   9.000000000000E-004   9.000000000000E-004   9.000000000000E-004   9.000000000000E-004   9.000000000000E-004   9.000000000000E-004   9.000000000000E-004 
        9.000000000000E-004   9.000000000000E-004   9.000000000000E-004   9.000000000000E-004   9.000000000000E-004   9.000000000000E-004   9.000000000000E-004   9.000000000000E-004   9.000000000000E-004   9.000000000000E-004 
        9.000000000000E-004   9.000000000000E-004   9.000000000000E-004   9.000000000000E-004   9.000000000000E-004   9.000000000000E-004   9.000000000000E-004   9.000000000000E-004   9.000000000000E-004   9.000000000000E-004 
        9.000000000000E-004   9.000000000000E-004   9.000000000000E-004   9.000000000000E-004   9.000000000000E-004   9.000000000000E-004   9.000000000000E-004   9.000000000000E-004   9.000000000000E-004   9.000000000000E-004 
        9.000000000000E-004   9.000000000000E-004   9.000000000000E-004   9.000000000000E-004   9.000000000000E-004   9.000000000000E-004   9.000000000000E-004   9.000000000000E-004 
        9.000000000000E-004   9.000000000000E-004   9.000000000000E-004   9.000000000000E-004   9.000000000000E-004   9.000000000000E-004   9.000000000000E-004   9.000000000000E-004   9.000000000000E-004   9.000000000000E-004 
        9.000000000000E-004   9.000000000000E-004   9.000000000000E-004   9.000000000000E-004   9.000000000000E-004   9.000000000000E-004   9.000000000000E-004   9.000000000000E-004   9.000000000000E-004   9.000000000000E-004 
        9.000000000000E-004   9.000000000000E-004   9.000000000000E-004   9.000000000000E-004   9.000000000000E-004   9.000000000000E-004   9.000000000000E-004   9.000000000000E-004   9.000000000000E-004   9.000000000000E-004 
        9.000000000000E-004   9.000000000000E-004   9.000000000000E-004   9.000000000000E-004   9.000000000000E-004   9.000000000000E-004   9.000000000000E-004   9.000000000000E-004   9.000000000000E-004   9.000000000000E-004 
        9.000000000000E-004   9.000000000000E-004   9.000000000000E-004   9.000000000000E-004   9.000000000000E-004   9.000000000000E-004   9.000000000000E-004   9.000000000000E-004   9.000000000000E-004   9.000000000000E-004 
        9.000000000000E-004   9.000000000000E-004   9.000000000000E-004   9.000000000000E-004   9.000000000000E-004   9.000000000000E-004   9.000000000000E-004   9.000000000000E-004   9.000000000000E-004   9.000000000000E-004 
        9.000000000000E-004   9.000000000000E-004   9.000000000000E-004   9.000000000000E-004   9.000000000000E-004   9.000000000000E-004   9.000000000000E-004   9.000000000000E-004   9.000000000000E-004   9.000000000000E-004 
        9.000000000000E-004   9.000000000000E-004   9.000000000000E-004   9.000000000000E-004   9.000000000000E-004   9.000000000000E-004   9.000000000000E-004   9.000000000000E-004   9.000000000000E-004   9.000000000000E-004 
        9.000000000000E-004   9.000000000000E-004   9.000000000000E-004   9.000000000000E-004   9.000000000000E-004   9.000000000000E-004   9.000000000000E-004   9.000000000000E-004   9.000000000000E-004   9.000000000000E-004 
        9.000000000000E-004   9.000000000000E-004   9.000000000000E-004   9.000000000000E-004   9.000000000000E-004   9.000000000000E-004   9.000000000000E-004   9.000000000000E-004   9.000000000000E-004   9.000000000000E-004 
        9.000000000000E-004   9.000000000000E-004   9.000000000000E-004   9.000000000000E-004   9.000000000000E-004   9.000000000000E-004   9.000000000000E-004   9.000000000000E-004   9.000000000000E-004   9.000000000000E-004 
        9.000000000000E-004   9.000000000000E-004   9.000000000000E-004   9.000000000000E-004   9.000000000000E-004   9.000000000000E-004   9.000000000000E-004   9.000000000000E-004   9.000000000000E-004   9.000000000000E-004 
        9.000000000000E-004   9.000000000000E-004   9.000000000000E-004   9.000000000000E-004   9.000000000000E-004   9.000000000000E-004   9.000000000000E-004   9.000000000000E-004 
        9.000000000000E-004   9.000000000000E-004   9.000000000000E-004   9.000000000000E-004   9.000000000000E-004   9.000000000000E-004   9.000000000000E-004   9.000000000000E-004   9.000000000000E-004   9.000000000000E-004 
        9.000000000000E-004   9.000000000000E-004   9.000000000000E-004   9.000000000000E-004   9.000000000000E-004   9.000000000000E-004   9.000000000000E-004   9.000000000000E-004   9.000000000000E-004   9.000000000000E-004 
        9.000000000000E-004   9.000000000000E-004   9.000000000000E-004   9.000000000000E-004   9.000000000000E-004   9.000000000000E-004   9.000000000000E-004   9.000000000000E-004   9.000000000000E-004   9.000000000000E-004 
        9.000000000000E-004   9.000000000000E-004   9.000000000000E-004   9.000000000000E-004   9.000000000000E-004   9.000000000000E-004   9.000000000000E-004   9.000000000000E-004   9.000000000000E-004   9.000000000000E-004 
        9.000000000000E-004   9.000000000000E-004   9.000000000000E-004   9.000000000000E-004   9.000000000000E-004   9.000000000000E-004   9.000000000000E-004   9.000000000000E-004   9.000000000000E-004   9.000000000000E-004 
        9.000000000000E-004   9.000000000000E-004   9.000000000000E-004   9.000000000000E-004   9.000000000000E-004   9.000000000000E-004   9.000000000000E-004   9.000000000000E-004   9.000000000000E-004   9.000000000000E-004 
        9.000000000000E-004   9.000000000000E-004   9.000000000000E-004   9.000000000000E-004   9.000000000000E-004   9.000000000000E-004   9.000000000000E-004   9.000000000000E-004   9.000000000000E-004   9.000000000000E-004 
        9.000000000000E-004   9.000000000000E-004   9.000000000000E-004   9.000000000000E-004   9.000000000000E-004   9.000000000000E-004   9.000000000000E-004   9.000000000000E-004   9.000000000000E-004   9.000000000000E-004 
        9.000000000000E-004   9.000000000000E-004   9.000000000000E-004   9.000000000000E-004   9.000000000000E-004   9.000000000000E-004   9.000000000000E-004   9.000000000000E-004   9.000000000000E-004   9.000000000000E-004 
        9.000000000000E-004   9.000000000000E-004   9.000000000000E-004   9.000000000000E-004   9.000000000000E-004   9.000000000000E-004   9.000000000000E-004   9.000000000000E-004   9.000000000000E-004   9.000000000000E-004 
        9.000000000000E-004   9.000000000000E-004   9.000000000000E-004   9.000000000000E-004   9.000000000000E-004   9.000000000000E-004   9.000000000000E-004   9.000000000000E-004   9.000000000000E-004   9.000000000000E-004 
        9.000000000000E-004   9.000000000000E-004   9.000000000000E-004   9.000000000000E-004   9.000000000000E-004   9.000000000000E-004   9.000000000000E-004   9.000000000000E-004   9.000000000000E-004   9.000000000000E-004 
        9.000000000000E-004   9.000000000000E-004   9.000000000000E-004   9.000000000000E-004   9.000000000000E-004   9.000000000000E-004   9.000000000000E-004   9.000000000000E-004 
        9.000000000000E-004   9.000000000000E-004   9.000000000000E-004   9.000000000000E-004   9.000000000000E-004   9.000000000000E-004   9.000000000000E-004   9.000000000000E-004   9.000000000000E-004   9.000000000000E-004 
        9.000000000000E-004   9.000000000000E-004   9.000000000000E-004   9.000000000000E-004   9.000000000000E-004   9.000000000000E-004   9.000000000000E-004   9.000000000000E-004   9.000000000000E-004   9.000000000000E-004 
        9.000000000000E-004   9.000000000000E-004   9.000000000000E-004   9.000000000000E-004   9.000000000000E-004   9.000000000000E-004   9.000000000000E-004   9.000000000000E-004   9.000000000000E-004   9.000000000000E-004 
        9.000000000000E-004   9.000000000000E-004   9.000000000000E-004   9.000000000000E-004   9.000000000000E-004   9.000000000000E-004   9.000000000000E-004   9.000000000000E-004   9.000000000000E-004   9.000000000000E-004 
        9.000000000000E-004   9.000000000000E-004   9.000000000000E-004   9.000000000000E-004   9.000000000000E-004   9.000000000000E-004   9.000000000000E-004   9.000000000000E-004   9.000000000000E-004   9.000000000000E-004 
        9.000000000000E-004   9.000000000000E-004   9.000000000000E-004   9.000000000000E-004   9.000000000000E-004   9.000000000000E-004   9.000000000000E-004   9.000000000000E-004   9.000000000000E-004   9.000000000000E-004 
        9.000000000000E-004   9.000000000000E-004   9.000000000000E-004   9.000000000000E-004   9.000000000000E-004   9.000000000000E-004   9.000000000000E-004   9.000000000000E-004   9.000000000000E-004   9.000000000000E-004 
        9.000000000000E-004   9.000000000000E-004   9.000000000000E-004   9.000000000000E-004   9.000000000000E-004   9.000000000000E-004   9.000000000000E-004   9.000000000000E-004   9.000000000000E-004   9.000000000000E-004 
        9.000000000000E-004   9.000000000000E-004   9.000000000000E-004   9.000000000000E-004   9.000000000000E-004   9.000000000000E-004   9.000000000000E-004   9.000000000000E-004   9.000000000000E-004   9.000000000000E-004 
        9.000000000000E-004   9.000000000000E-004   9.000000000000E-004   9.000000000000E-004   9.000000000000E-004   9.000000000000E-004   9.000000000000E-004   9.000000000000E-004   9.000000000000E-004   9.000000000000E-004 
        9.000000000000E-004   9.000000000000E-004   9.000000000000E-004   9.000000000000E-004   9.000000000000E-004   9.000000000000E-004   9.000000000000E-004   9.000000000000E-004   9.000000000000E-004   9.000000000000E-004 
        9.000000000000E-004   9.000000000000E-004   9.000000000000E-004   9.000000000000E-004   9.000000000000E-004   9.000000000000E-004   9.000000000000E-004   9.000000000000E-004   9.000000000000E-004   9.000000000000E-004 
        9.000000000000E-004   9.000000000000E-004   9.000000000000E-004   9.000000000000E-004   9.000000000000E-004   9.000000000000E-004   9.000000000000E-004   9.000000000000E-004 
        9.000000000000E-004   9.000000000000E-004   3.500000000000E-006   3.500000000000E-006   3.500000000000E-006   3.500000000000E-006   3.500000000000E-006   3.500000000000E-006   9.000000000000E-004   9.000000000000E-004 
        9.000000000000E-004   9.000000000000E-004   9.000000000000E-004   9.000000000000E-004   9.000000000000E-004   9.000000000000E-004   9.000000000000E-004   9.000000000000E-004   9.000000000000E-004   9.000000000000E-004 
        9.000000000000E-004   9.000000000000E-004   9.000000000000E-004   9.000000000000E-004   9.000000000000E-004   9.000000000000E-004   9.000000000000E-004   9.000000000000E-004   9.000000000000E-004   9.000000000000E-004 
        9.000000000000E-004   9.000000000000E-004   9.000000000000E-004   9.000000000000E-004   9.000000000000E-004   9.000000000000E-004   9.000000000000E-004   9.000000000000E-004   9.000000000000E-004   9.000000000000E-004 
        9.000000000000E-004   9.000000000000E-004   9.000000000000E-004   9.000000000000E-004   9.000000000000E-004   9.000000000000E-004   9.000000000000E-004   9.000000000000E-004   9.000000000000E-004   9.000000000000E-004 
        9.000000000000E-004   9.000000000000E-004   9.000000000000E-004   9.000000000000E-004   9.000000000000E-004   9.000000000000E-004   9.000000000000E-004   9.000000000000E-004   9.000000000000E-004   9.000000000000E-004 
        9.000000000000E-004   9.000000000000E-004   9.000000000000E-004   9.000000000000E-004   9.000000000000E-004   9.000000000000E-004   9.000000000000E-004   9.000000000000E-004   9.000000000000E-004   9.000000000000E-004 
        9.000000000000E-004   9.000000000000E-004   9.000000000000E-004   9.000000000000E-004   9.000000000000E-004   9.000000000000E-004   9.000000000000E-004   9.000000000000E-004   9.000000000000E-004   9.000000000000E-004 
        9.000000000000E-004   9.000000000000E-004   9.000000000000E-004   9.000000000000E-004   9.000000000000E-004   9.000000000000E-004   9.000000000000E-004   9.000000000000E-004   9.000000000000E-004   9.000000000000E-004 
        9.000000000000E-004   9.000000000000E-004   9.000000000000E-004   9.000000000000E-004   9.000000000000E-004   9.000000000000E-004   9.000000000000E-004   9.000000000000E-004   9.000000000000E-004   9.000000000000E-004 
        9.000000000000E-004   9.000000000000E-004   9.000000000000E-004   9.000000000000E-004   9.000000000000E-004   9.000000000000E-004   9.000000000000E-004   9.000000000000E-004   9.000000000000E-004   9.000000000000E-004 
        9.000000000000E-004   9.000000000000E-004   9.000000000000E-004   9.000000000000E-004   9.000000000000E-004   9.000000000000E-004   9.000000000000E-004   9.000000000000E-004   9.000000000000E-004   9.000000000000E-004 
        9.000000000000E-004   9.000000000000E-004   9.000000000000E-004   9.000000000000E-004   9.000000000000E-004   9.000000000000E-004   9.000000000000E-004   9.000000000000E-004 
        9.000000000000E-004   9.000000000000E-004   9.000000000000E-004   3.500000000000E-006   3.500000000000E-006   3.500000000000E-006   3.500000000000E-006   3.500000000000E-006   3.500000000000E-006   3.500000000000E-006 
        3.500000000000E-006   3.500000000000E-006   3.500000000000E-006   3.500000000000E-006   3.500000000000E-006   3.500000000000E-006   3.500000000000E-006   3.500000000000E-006   3.500000000000E-006   3.500000000000E-006 
        3.500000000000E-006   9.000000000000E-004   9.000000000000E-004   9.000000000000E-004   9.000000000000E-004   9.000000000000E-004   9.000000000000E-004   9.000000000000E-004   9.000000000000E-004   9.000000000000E-004 
        9.000000000000E-004   9.000000000000E-004   9.000000000000E-004   9.000000000000E-004   9.000000000000E-004   9.000000000000E-004   9.000000000000E-004   9.000000000000E-004   9.000000000000E-004   9.000000000000E-004 
        9.000000000000E-004   9.000000000000E-004   9.000000000000E-004   9.000000000000E-004   9.000000000000E-004   9.000000000000E-004   9.000000000000E-004   9.000000000000E-004   9.000000000000E-004   9.000000000000E-004 
        9.000000000000E-004   9.000000000000E-004   9.000000000000E-004   9.000000000000E-004   9.000000000000E-004   9.000000000000E-004   9.000000000000E-004   9.000000000000E-004   9.000000000000E-004   9.000000000000E-004 
        9.000000000000E-004   9.000000000000E-004   9.000000000000E-004   9.000000000000E-004   9.000000000000E-004   9.000000000000E-004   9.000000000000E-004   9.000000000000E-004   9.000000000000E-004   9.000000000000E-004 
        9.000000000000E-004   9.000000000000E-004   9.000000000000E-004   9.000000000000E-004   9.000000000000E-004   9.000000000000E-004   9.000000000000E-004   9.000000000000E-004   9.000000000000E-004   9.000000000000E-004 
        9.000000000000E-004   9.000000000000E-004   9.000000000000E-004   9.000000000000E-004   9.000000000000E-004   9.000000000000E-004   9.000000000000E-004   9.000000000000E-004   9.000000000000E-004   9.000000000000E-004 
        9.000000000000E-004   9.000000000000E-004   9.000000000000E-004   9.000000000000E-004   9.000000000000E-004   9.000000000000E-004   9.000000000000E-004   9.000000000000E-004   9.000000000000E-004   9.000000000000E-004 
        9.000000000000E-004   9.000000000000E-004   9.000000000000E-004   9.000000000000E-004   9.000000000000E-004   9.000000000000E-004   9.000000000000E-004   9.000000000000E-004   9.000000000000E-004   9.000000000000E-004 
        9.000000000000E-004   9.000000000000E-004   9.000000000000E-004   9.000000000000E-004   9.000000000000E-004   9.000000000000E-004   9.000000000000E-004   9.000000000000E-004   9.000000000000E-004   9.000000000000E-004 
        9.000000000000E-004   9.000000000000E-004   9.000000000000E-004   9.000000000000E-004   9.000000000000E-004   9.000000000000E-004   9.000000000000E-004   9.000000000000E-004 
        9.000000000000E-004   9.000000000000E-004   9.000000000000E-004   3.500000000000E-006   3.500000000000E-006   3.500000000000E-006   3.500000000000E-006   3.500000000000E-006   3.500000000000E-006   3.500000000000E-006 
        3.500000000000E-006   3.500000000000E-006   3.500000000000E-006   3.500000000000E-006   3.500000000000E-006   3.500000000000E-006   3.500000000000E-006   3.500000000000E-006   3.500000000000E-006   3.500000000000E-006 
        3.500000000000E-006   3.500000000000E-006   9.000000000000E-004   9.000000000000E-004   9.000000000000E-004   9.000000000000E-004   9.000000000000E-004   9.000000000000E-004   9.000000000000E-004   9.000000000000E-004 
        9.000000000000E-004   9.000000000000E-004   9.000000000000E-004   9.000000000000E-004   9.000000000000E-004   9.000000000000E-004   9.000000000000E-004   9.000000000000E-004   9.000000000000E-004   9.000000000000E-004 
        9.000000000000E-004   9.000000000000E-004   9.000000000000E-004   9.000000000000E-004   9.000000000000E-004   9.000000000000E-004   9.000000000000E-004   9.000000000000E-004   9.000000000000E-004   9.000000000000E-004 
        9.000000000000E-004   9.000000000000E-004   9.000000000000E-004   9.000000000000E-004   9.000000000000E-004   9.000000000000E-004   9.000000000000E-004   9.000000000000E-004   9.000000000000E-004   9.000000000000E-004 
        9.000000000000E-004   9.000000000000E-004   9.000000000000E-004   9.000000000000E-004   9.000000000000E-004   9.000000000000E-004   9.000000000000E-004   9.000000000000E-004   9.000000000000E-004   9.000000000000E-004 
        9.000000000000E-004   9.000000000000E-004   9.000000000000E-004   9.000000000000E-004   9.000000000000E-004   9.000000000000E-004   9.000000000000E-004   9.000000000000E-004   9.000000000000E-004   9.000000000000E-004 
        9.000000000000E-004   9.000000000000E-004   9.000000000000E-004   9.000000000000E-004   9.000000000000E-004   9.000000000000E-004   9.000000000000E-004   9.000000000000E-004   9.000000000000E-004   9.000000000000E-004 
        9.000000000000E-004   9.000000000000E-004   9.000000000000E-004   9.000000000000E-004   9.000000000000E-004   9.000000000000E-004   9.000000000000E-004   9.000000000000E-004   9.000000000000E-004   9.000000000000E-004 
        9.000000000000E-004   9.000000000000E-004   9.000000000000E-004   9.000000000000E-004   9.000000000000E-004   9.000000000000E-004   9.000000000000E-004   9.000000000000E-004   9.000000000000E-004   9.000000000000E-004 
        9.000000000000E-004   9.000000000000E-004   9.000000000000E-004   9.000000000000E-004   9.000000000000E-004   9.000000000000E-004   9.000000000000E-004   9.000000000000E-004   9.000000000000E-004   9.000000000000E-004 
        9.000000000000E-004   9.000000000000E-004   9.000000000000E-004   9.000000000000E-004   9.000000000000E-004   9.000000000000E-004   9.000000000000E-004   9.000000000000E-004 
        9.000000000000E-004   9.000000000000E-004   9.000000000000E-004   3.500000000000E-006   3.500000000000E-006   3.500000000000E-006   3.500000000000E-006   3.500000000000E-006   3.500000000000E-006   3.500000000000E-006 
        3.500000000000E-006   3.500000000000E-006   3.500000000000E-006   3.500000000000E-006   3.500000000000E-006   3.500000000000E-006   3.500000000000E-006   3.500000000000E-006   3.500000000000E-006   3.500000000000E-006 