# Name File for MODFLOW created on 2025/10/24 by ModelMuse Version 5.4.0.0
BEGIN OPTIONS
  LIST Steady.lst
  PRINT_INPUT
  SAVE_FLOWS
END OPTIONS

BEGIN PACKAGES
  DIS6         Steady.dis  DIS
  IC6          Steady.ic  IC
  NPF6         Steady.npf  NPF
  OBS6         Steady.ob_gw
  OC6          Steady.oc  OC
  CHD6         Steady.chd  CHD-1
  WEL6         Steady.wel  WEL-1
  RIV6         Steady.riv  RIV-1
  RCH6         Steady.rch  RCH-1
END PACKAGES
