BEGIN OPTIONS
  PRINT_INPUT
END OPTIONS

BEGIN TIMING
  TDIS6 'Minimum_Time.tdis'
END TIMING

BEGIN MODELS
  GWF6 'Minimum_Time.nam' 'MODFLOW'
END MODELS

BEGIN EXCHANGES
END EXCHANGES

BEGIN SOLUTIONGROUP     1
  MXITER     1
  IMS6 'Minimum_Time.ims' 'MODFLOW' 
END SOLUTIONGROUP

