# RCH: Recharge package file created on 2025/11/28 by ModelMuse version 5.4.0.0.
BEGIN OPTIONS
  AUXILIARY IFACE
  PRINT_INPUT
    SAVE_FLOWS
    BOUNDNAMES
  FIXED_CELL
END OPTIONS

BEGIN DIMENSIONS
  MAXBOUND 14757
END DIMENSIONS

BEGIN PERIOD      1
     1   127   101  5.000000000000E-009      0 'Surface_Recharge_Bigger' 
     1   127   100  5.000000000000E-009      0 'Surface_Recharge_Bigger' 
     1   127    99  5.000000000000E-009      0 'Surface_Recharge_Bigger' 
     1   127    98  5.000000000000E-009      0 'Surface_Recharge_Bigger' 
     1   127    97  5.000000000000E-009      0 'Surface_Recharge_Bigger' 
     1   127    96  5.000000000000E-009      0 'Surface_Recharge_Bigger' 
     1   127    95  5.000000000000E-009      0 'Surface_Recharge_Bigger' 
     1   127    94  5.000000000000E-009      0 'Surface_Recharge_Bigger' 
     1   127    93  5.000000000000E-009      0 'Surface_Recharge_Bigger' 
     1   127    92  5.000000000000E-009      0 'Surface_Recharge_Bigger' 
     1   127    91  5.000000000000E-009      0 'Surface_Recharge_Bigger' 
     1   127    90  5.000000000000E-009      0 'Surface_Recharge_Bigger' 
     1   127    89  5.000000000000E-009      0 'Surface_Recharge_Bigger' 
     1   127    88  5.000000000000E-009      0 'Surface_Recharge_Bigger' 
     1   127    87  5.000000000000E-009      0 'Surface_Recharge_Bigger' 
     1   127    86  5.000000000000E-009      0 'Surface_Recharge_Bigger' 
     1   127    85  5.000000000000E-009      0 'Surface_Recharge_Bigger' 
     1   127    84  5.000000000000E-009      0 'Surface_Recharge_Bigger' 
     1   127    83  5.000000000000E-009      0 'Surface_Recharge_Bigger' 
     1   127    82  5.000000000000E-009      0 'Surface_Recharge_Bigger' 
     1   127    81  5.000000000000E-009      0 'Surface_Recharge_Bigger' 
     1   127    80  5.000000000000E-009      0 'Surface_Recharge_Bigger' 
     1   127    79  5.000000000000E-009      0 'Surface_Recharge_Bigger' 
     1   127    78  5.000000000000E-009      0 'Surface_Recharge_Bigger' 
     1   127    77  5.000000000000E-009      0 'Surface_Recharge_Bigger' 
     1   127    76  5.000000000000E-009      0 'Surface_Recharge_Bigger' 
     1   127    75  5.000000000000E-009      0 'Surface_Recharge_Bigger' 
     1   127    74  5.000000000000E-009      0 'Surface_Recharge_Bigger' 
     1   127    73  5.000000000000E-009      0 'Surface_Recharge_Bigger' 
     1   127    72  5.000000000000E-009      0 'Surface_Recharge_Bigger' 
     1   127    71  5.000000000000E-009      0 'Surface_Recharge_Bigger' 
     1   127    70  5.000000000000E-009      0 'Surface_Recharge_Bigger' 
     1   127    69  5.000000000000E-009      0 'Surface_Recharge_Bigger' 
     1   127    68  5.000000000000E-009      0 'Surface_Recharge_Bigger' 
     1   127    67  5.000000000000E-009      0 'Surface_Recharge_Bigger' 
     1   127    66  5.000000000000E-009      0 'Surface_Recharge_Bigger' 
     1   127    65  5.000000000000E-009      0 'Surface_Recharge_Bigger' 
     1   127    64  5.000000000000E-009      0 'Surface_Recharge_Bigger' 
     1   127    63  5.000000000000E-009      0 'Surface_Recharge_Bigger' 
     1   127    62  5.000000000000E-009      0 'Surface_Recharge_Bigger' 
     1   127    61  5.000000000000E-009      0 'Surface_Recharge_Bigger' 
     1   127    60  5.000000000000E-009      0 'Surface_Recharge_Bigger' 
     1   127    59  5.000000000000E-009      0 'Surface_Recharge_Bigger' 
     1   127    58  5.000000000000E-009      0 'Surface_Recharge_Bigger' 
     1   127    57  5.000000000000E-009      0 'Surface_Recharge_Bigger' 
     1   127    56  5.000000000000E-009      0 'Surface_Recharge_Bigger' 
     1   127    55  5.000000000000E-009      0 'Surface_Recharge_Bigger' 
     1   127    54  5.000000000000E-009      0 'Surface_Recharge_Bigger' 
     1   127    53  5.000000000000E-009      0 'Surface_Recharge_Bigger' 
     1   127    52  5.000000000000E-009      0 'Surface_Recharge_Bigger' 
     1   127    51  5.000000000000E-009      0 'Surface_Recharge_Bigger' 
     1   127    50  5.000000000000E-009      0 'Surface_Recharge_Bigger' 
     1   127    49  5.000000000000E-009      0 'Surface_Recharge_Bigger' 
     1   127    48  5.000000000000E-009      0 'Surface_Recharge_Bigger' 
     1   127    47  5.000000000000E-009      0 'Surface_Recharge_Bigger' 
     1   127    46  5.000000000000E-009      0 'Surface_Recharge_Bigger' 
     1   127    45  5.000000000000E-009      0 'Surface_Recharge_Bigger' 
     1   127    44  5.000000000000E-009      0 'Surface_Recharge_Bigger' 
     1   127    43  5.000000000000E-009      0 'Surface_Recharge_Bigger' 
     1   127    42  5.000000000000E-009      0 'Surface_Recharge_Bigger' 
     1   127    41  5.000000000000E-009      0 'Surface_Recharge_Bigger' 
     1   127    40  5.000000000000E-009      0 'Surface_Recharge_Bigger' 
     1   127    39  5.000000000000E-009      0 'Surface_Recharge_Bigger' 
     1   127    38  5.000000000000E-009      0 'Surface_Recharge_Bigger' 
     1   127    37  5.000000000000E-009      0 'Surface_Recharge_Bigger' 
     1   127    36  5.000000000000E-009      0 'Surface_Recharge_Bigger' 
     1   127    35  5.000000000000E-009      0 'Surface_Recharge_Bigger' 
     1   127    34  5.000000000000E-009      0 'Surface_Recharge_Bigger' 
     1   127    33  5.000000000000E-009      0 'Surface_Recharge_Bigger' 
     1   127    32  5.000000000000E-009      0 'Surface_Recharge_Bigger' 
     1   127    31  5.000000000000E-009      0 'Surface_Recharge_Bigger' 
     1   127    30  5.000000000000E-009      0 'Surface_Recharge_Bigger' 
     1   127    29  5.000000000000E-009      0 'Surface_Recharge_Bigger' 
     1   127    28  5.000000000000E-009      0 'Surface_Recharge_Bigger' 
     1   127    27  5.000000000000E-009      0 'Surface_Recharge_Bigger' 
     1   127    26  5.000000000000E-009      0 'Surface_Recharge_Bigger' 
     1   127    25  5.000000000000E-009      0 'Surface_Recharge_Bigger' 
     1   127    24  5.000000000000E-009      0 'Surface_Recharge_Bigger' 
     1   127    23  5.000000000000E-009      0 'Surface_Recharge_Bigger' 
     1   127    22  5.000000000000E-009      0 'Surface_Recharge_Bigger' 
     1   127    21  5.000000000000E-009      0 'Surface_Recharge_Bigger' 
     1   127    20  5.000000000000E-009      0 'Surface_Recharge_Bigger' 
     1   127    19  5.000000000000E-009      0 'Surface_Recharge_Bigger' 
     1   127    18  5.000000000000E-009      0 'Surface_Recharge_Bigger' 
     1   127    17  5.000000000000E-009      0 'Surface_Recharge_Bigger' 
     1   127    16  5.000000000000E-009      0 'Surface_Recharge_Bigger' 
     1   127    15  5.000000000000E-009      0 'Surface_Recharge_Bigger' 
     1   127    14  5.000000000000E-009      0 'Surface_Recharge_Bigger' 
     1   127    13  5.000000000000E-009      0 'Surface_Recharge_Bigger' 
     1   127    12  5.000000000000E-009      0 'Surface_Recharge_Bigger' 
     1   127    11  5.000000000000E-009      0 'Surface_Recharge_Bigger' 
     1   127    10  5.000000000000E-009      0 'Surface_Recharge_Bigger' 
     1   127     9  5.000000000000E-009      0 'Surface_Recharge_Bigger' 
     1   127     8  5.000000000000E-009      0 'Surface_Recharge_Bigger' 
     1   127     7  5.000000000000E-009      0 'Surface_Recharge_Bigger' 
     1   127     6  5.000000000000E-009      0 'Surface_Recharge_Bigger' 
     1   127     5  5.000000000000E-009      0 'Surface_Recharge_Bigger' 
     1   127     4  5.000000000000E-009      0 'Surface_Recharge_Bigger' 
     1   127     3  5.000000000000E-009      0 'Surface_Recharge_Bigger' 
     1   127     2  5.000000000000E-009      0 'Surface_Recharge_Bigger' 
     1   126   102  5.000000000000E-009      0 'Surface_Recharge_Bigger' 
     1   126   101  5.000000000000E-009      0 'Surface_Recharge_Bigger' 
     1   126   100  5.000000000000E-009      0 'Surface_Recharge_Bigger' 
     1   126    99  5.000000000000E-009      0 'Surface_Recharge_Bigger' 
     1   126    98  5.000000000000E-009      0 'Surface_Recharge_Bigger' 
     1   126    97  5.000000000000E-009      0 'Surface_Recharge_Bigger' 
     1   126    96  5.000000000000E-009      0 'Surface_Recharge_Bigger' 
     1   126    95  5.000000000000E-009      0 'Surface_Recharge_Bigger' 
     1   126    94  5.000000000000E-009      0 'Surface_Recharge_Bigger' 
     1   126    93  5.000000000000E-009      0 'Surface_Recharge_Bigger' 
     1   126    92  5.000000000000E-009      0 'Surface_Recharge_Bigger' 
     1   126    91  5.000000000000E-009      0 'Surface_Recharge_Bigger' 
     1   126    90  5.000000000000E-009      0 'Surface_Recharge_Bigger' 
     1   126    89  5.000000000000E-009      0 'Surface_Recharge_Bigger' 
     1   126    88  5.000000000000E-009      0 'Surface_Recharge_Bigger' 
     1   126    87  5.000000000000E-009      0 'Surface_Recharge_Bigger' 
     1   126    86  5.000000000000E-009      0 'Surface_Recharge_Bigger' 
     1   126    85  5.000000000000E-009      0 'Surface_Recharge_Bigger' 
     1   126    84  5.000000000000E-009      0 'Surface_Recharge_Bigger' 
     1   126    83  5.000000000000E-009      0 'Surface_Recharge_Bigger' 
     1   126    82  5.000000000000E-009      0 'Surface_Recharge_Bigger' 
     1   126    81  5.000000000000E-009      0 'Surface_Recharge_Bigger' 
     1   126    80  5.000000000000E-009      0 'Surface_Recharge_Bigger' 
     1   126    79  5.000000000000E-009      0 'Surface_Recharge_Bigger' 
     1   126    78  5.000000000000E-009      0 'Surface_Recharge_Bigger' 
     1   126    77  5.000000000000E-009      0 'Surface_Recharge_Bigger' 
     1   126    76  5.000000000000E-009      0 'Surface_Recharge_Bigger' 
     1   126    75  5.000000000000E-009      0 'Surface_Recharge_Bigger' 
     1   126    74  5.000000000000E-009      0 'Surface_Recharge_Bigger' 
     1   126    73  5.000000000000E-009      0 'Surface_Recharge_Bigger' 
     1   126    72  5.000000000000E-009      0 'Surface_Recharge_Bigger' 
     1   126    71  5.000000000000E-009      0 'Surface_Recharge_Bigger' 
     1   126    70  5.000000000000E-009      0 'Surface_Recharge_Bigger' 
     1   126    69  5.000000000000E-009      0 'Surface_Recharge_Bigger' 
     1   126    68  5.000000000000E-009      0 'Surface_Recharge_Bigger' 
     1   126    67  5.000000000000E-009      0 'Surface_Recharge_Bigger' 
     1   126    66  5.000000000000E-009      0 'Surface_Recharge_Bigger' 
     1   126    65  5.000000000000E-009      0 'Surface_Recharge_Bigger' 
     1   126    64  5.000000000000E-009      0 'Surface_Recharge_Bigger' 
     1   126    63  5.000000000000E-009      0 'Surface_Recharge_Bigger' 
     1   126    62  5.000000000000E-009      0 'Surface_Recharge_Bigger' 
     1   126    61  5.000000000000E-009      0 'Surface_Recharge_Bigger' 
     1   126    60  5.000000000000E-009      0 'Surface_Recharge_Bigger' 
     1   126    59  5.000000000000E-009      0 'Surface_Recharge_Bigger' 
     1   126    58  5.000000000000E-009      0 'Surface_Recharge_Bigger' 
     1   126    57  5.000000000000E-009      0 'Surface_Recharge_Bigger' 
     1   126    56  5.000000000000E-009      0 'Surface_Recharge_Bigger' 
     1   126    55  5.000000000000E-009      0 'Surface_Recharge_Bigger' 
     1   126    54  5.000000000000E-009      0 'Surface_Recharge_Bigger' 
     1   126    53  5.000000000000E-009      0 'Surface_Recharge_Bigger' 
     1   126    52  5.000000000000E-009      0 'Surface_Recharge_Bigger' 
     1   126    51  5.000000000000E-009      0 'Surface_Recharge_Bigger' 
     1   126    50  5.000000000000E-009      0 'Surface_Recharge_Bigger' 
     1   126    49  5.000000000000E-009      0 'Surface_Recharge_Bigger' 
     1   126    48  5.000000000000E-009      0 'Surface_Recharge_Bigger' 
     1   126    47  5.000000000000E-009      0 'Surface_Recharge_Bigger' 
     1   126    46  5.000000000000E-009      0 'Surface_Recharge_Bigger' 
     1   126    45  5.000000000000E-009      0 'Surface_Recharge_Bigger' 
     1   126    44  5.000000000000E-009      0 'Surface_Recharge_Bigger' 
     1   126    43  5.000000000000E-009      0 'Surface_Recharge_Bigger' 
     1   126    42  5.000000000000E-009      0 'Surface_Recharge_Bigger' 
     1   126    41  5.000000000000E-009      0 'Surface_Recharge_Bigger' 
     1   126    40  5.000000000000E-009      0 'Surface_Recharge_Bigger' 
     1   126    39  5.000000000000E-009      0 'Surface_Recharge_Bigger' 
     1   126    38  5.000000000000E-009      0 'Surface_Recharge_Bigger' 
     1   126    37  5.000000000000E-009      0 'Surface_Recharge_Bigger' 
     1   126    36  5.000000000000E-009      0 'Surface_Recharge_Bigger' 
     1   126    35  5.000000000000E-009      0 'Surface_Recharge_Bigger' 
     1   126    34  5.000000000000E-009      0 'Surface_Recharge_Bigger' 
     1   126    33  5.000000000000E-009      0 'Surface_Recharge_Bigger' 
     1   126    32  5.000000000000E-009      0 'Surface_Recharge_Bigger' 
     1   126    31  5.000000000000E-009      0 'Surface_Recharge_Bigger' 
     1   126    30  5.000000000000E-009      0 'Surface_Recharge_Bigger' 
     1   126    29  5.000000000000E-009      0 'Surface_Recharge_Bigger' 
     1   126    28  5.000000000000E-009      0 'Surface_Recharge_Bigger' 
     1   126    27  5.000000000000E-009      0 'Surface_Recharge_Bigger' 
     1   126    26  5.000000000000E-009      0 'Surface_Recharge_Bigger' 
     1   126    25  5.000000000000E-009      0 'Surface_Recharge_Bigger' 
     1   126    24  5.000000000000E-009      0 'Surface_Recharge_Bigger' 
     1   126    23  5.000000000000E-009      0 'Surface_Recharge_Bigger' 
     1   126    22  5.000000000000E-009      0 'Surface_Recharge_Bigger' 
     1   126    21  5.000000000000E-009      0 'Surface_Recharge_Bigger' 
     1   126    20  5.000000000000E-009      0 'Surface_Recharge_Bigger' 
     1   126    19  5.000000000000E-009      0 'Surface_Recharge_Bigger' 
     1   126    18  5.000000000000E-009      0 'Surface_Recharge_Bigger' 
     1   126    17  5.000000000000E-009      0 'Surface_Recharge_Bigger' 
     1   126    16  5.000000000000E-009      0 'Surface_Recharge_Bigger' 
     1   126    15  5.000000000000E-009      0 'Surface_Recharge_Bigger' 
     1   126    14  5.000000000000E-009      0 'Surface_Recharge_Bigger' 
     1   126    13  5.000000000000E-009      0 'Surface_Recharge_Bigger' 
     1   126    12  5.000000000000E-009      0 'Surface_Recharge_Bigger' 
     1   126    11  5.000000000000E-009      0 'Surface_Recharge_Bigger' 
     1   126    10  5.000000000000E-009      0 'Surface_Recharge_Bigger' 
     1   126     9  5.000000000000E-009      0 'Surface_Recharge_Bigger' 
     1   126     8  5.000000000000E-009      0 'Surface_Recharge_Bigger' 
     1   126     7  5.000000000000E-009      0 'Surface_Recharge_Bigger' 
     1   126     6  5.000000000000E-009      0 'Surface_Recharge_Bigger' 
     1   126     5  5.000000000000E-009      0 'Surface_Recharge_Bigger' 
     1   126     4  5.000000000000E-009      0 'Surface_Recharge_Bigger' 
     1   126     3  5.000000000000E-009      0 'Surface_Recharge_Bigger' 
     1   126     2  5.000000000000E-009      0 'Surface_Recharge_Bigger' 
     1   125   103  5.000000000000E-009      0 'Surface_Recharge_Bigger' 
     1   125   102  5.000000000000E-009      0 'Surface_Recharge_Bigger' 
     1   125   101  5.000000000000E-009      0 'Surface_Recharge_Bigger' 
     1   125   100  5.000000000000E-009      0 'Surface_Recharge_Bigger' 
     1   125    99  5.000000000000E-009      0 'Surface_Recharge_Bigger' 
     1   125    98  5.000000000000E-009      0 'Surface_Recharge_Bigger' 
     1   125    97  5.000000000000E-009      0 'Surface_Recharge_Bigger' 
     1   125    96  5.000000000000E-009      0 'Surface_Recharge_Bigger' 
     1   125    95  5.000000000000E-009      0 'Surface_Recharge_Bigger' 
     1   125    94  5.000000000000E-009      0 'Surface_Recharge_Bigger' 
     1   125    93  5.000000000000E-009      0 'Surface_Recharge_Bigger' 
     1   125    92  5.000000000000E-009      0 'Surface_Recharge_Bigger' 
     1   125    91  5.000000000000E-009      0 'Surface_Recharge_Bigger' 
     1   125    90  5.000000000000E-009      0 'Surface_Recharge_Bigger' 
     1   125    89  5.000000000000E-009      0 'Surface_Recharge_Bigger' 
     1   125    88  5.000000000000E-009      0 'Surface_Recharge_Bigger' 
     1   125    87  5.000000000000E-009      0 'Surface_Recharge_Bigger' 
     1   125    86  5.000000000000E-009      0 'Surface_Recharge_Bigger' 
     1   125    85  5.000000000000E-009      0 'Surface_Recharge_Bigger' 
     1   125    84  5.000000000000E-009      0 'Surface_Recharge_Bigger' 
     1   125    83  5.000000000000E-009      0 'Surface_Recharge_Bigger' 
     1   125    82  5.000000000000E-009      0 'Surface_Recharge_Bigger' 
     1   125    81  5.000000000000E-009      0 'Surface_Recharge_Bigger' 
     1   125    80  5.000000000000E-009      0 'Surface_Recharge_Bigger' 
     1   125    79  5.000000000000E-009      0 'Surface_Recharge_Bigger' 
     1   125    78  5.000000000000E-009      0 'Surface_Recharge_Bigger' 
     1   125    77  5.000000000000E-009      0 'Surface_Recharge_Bigger' 
     1   125    76  5.000000000000E-009      0 'Surface_Recharge_Bigger' 
     1   125    75  5.000000000000E-009      0 'Surface_Recharge_Bigger' 
     1   125    74  5.000000000000E-009      0 'Surface_Recharge_Bigger' 
     1   125    73  5.000000000000E-009      0 'Surface_Recharge_Bigger' 
     1   125    72  5.000000000000E-009      0 'Surface_Recharge_Bigger' 
     1   125    71  5.000000000000E-009      0 'Surface_Recharge_Bigger' 
     1   125    70  5.000000000000E-009      0 'Surface_Recharge_Bigger' 
     1   125    69  5.000000000000E-009      0 'Surface_Recharge_Bigger' 
     1   125    68  5.000000000000E-009      0 'Surface_Recharge_Bigger' 
     1   125    67  5.000000000000E-009      0 'Surface_Recharge_Bigger' 
     1   125    66  5.000000000000E-009      0 'Surface_Recharge_Bigger' 
     1   125    65  5.000000000000E-009      0 'Surface_Recharge_Bigger' 
     1   125    64  5.000000000000E-009      0 'Surface_Recharge_Bigger' 
     1   125    63  5.000000000000E-009      0 'Surface_Recharge_Bigger' 
     1   125    62  5.000000000000E-009      0 'Surface_Recharge_Bigger' 
     1   125    61  5.000000000000E-009      0 'Surface_Recharge_Bigger' 
     1   125    60  5.000000000000E-009      0 'Surface_Recharge_Bigger' 
     1   125    59  5.000000000000E-009      0 'Surface_Recharge_Bigger' 
     1   125    58  5.000000000000E-009      0 'Surface_Recharge_Bigger' 
     1   125    57  5.000000000000E-009      0 'Surface_Recharge_Bigger' 
     1   125    56  5.000000000000E-009      0 'Surface_Recharge_Bigger' 
     1   125    55  5.000000000000E-009      0 'Surface_Recharge_Bigger' 
     1   125    54  5.000000000000E-009      0 'Surface_Recharge_Bigger' 
     1   125    53  5.000000000000E-009      0 'Surface_Recharge_Bigger' 
     1   125    52  5.000000000000E-009      0 'Surface_Recharge_Bigger' 
     1   125    51  5.000000000000E-009      0 'Surface_Recharge_Bigger' 
     1   125    50  5.000000000000E-009      0 'Surface_Recharge_Bigger' 
     1   125    49  5.000000000000E-009      0 'Surface_Recharge_Bigger' 
     1   125    48  5.000000000000E-009      0 'Surface_Recharge_Bigger' 
     1   125    47  5.000000000000E-009      0 'Surface_Recharge_Bigger' 
     1   125    46  5.000000000000E-009      0 'Surface_Recharge_Bigger' 
     1   125    45  5.000000000000E-009      0 'Surface_Recharge_Bigger' 
     1   125    44  5.000000000000E-009      0 'Surface_Recharge_Bigger' 
     1   125    43  5.000000000000E-009      0 'Surface_Recharge_Bigger' 
     1   125    42  5.000000000000E-009      0 'Surface_Recharge_Bigger' 
     1   125    41  5.000000000000E-009      0 'Surface_Recharge_Bigger' 
     1   125    40  5.000000000000E-009      0 'Surface_Recharge_Bigger' 
     1   125    39  5.000000000000E-009      0 'Surface_Recharge_Bigger' 
     1   125    38  5.000000000000E-009      0 'Surface_Recharge_Bigger' 
     1   125    37  5.000000000000E-009      0 'Surface_Recharge_Bigger' 
     1   125    36  5.000000000000E-009      0 'Surface_Recharge_Bigger' 
     1   125    35  5.000000000000E-009      0 'Surface_Recharge_Bigger' 
     1   125    34  5.000000000000E-009      0 'Surface_Recharge_Bigger' 
     1   125    33  5.000000000000E-009      0 'Surface_Recharge_Bigger' 
     1   125    32  5.000000000000E-009      0 'Surface_Recharge_Bigger' 
     1   125    31  5.000000000000E-009      0 'Surface_Recharge_Bigger' 
     1   125    30  5.000000000000E-009      0 'Surface_Recharge_Bigger' 
     1   125    29  5.000000000000E-009      0 'Surface_Recharge_Bigger' 
     1   125    28  5.000000000000E-009      0 'Surface_Recharge_Bigger' 
     1   125    27  5.000000000000E-009      0 'Surface_Recharge_Bigger' 
     1   125    26  5.000000000000E-009      0 'Surface_Recharge_Bigger' 
     1   125    25  5.000000000000E-009      0 'Surface_Recharge_Bigger' 
     1   125    24  5.000000000000E-009      0 'Surface_Recharge_Bigger' 
     1   125    23  5.000000000000E-009      0 'Surface_Recharge_Bigger' 
     1   125    22  5.000000000000E-009      0 'Surface_Recharge_Bigger' 
     1   125    21  5.000000000000E-009      0 'Surface_Recharge_Bigger' 
     1   125    20  5.000000000000E-009      0 'Surface_Recharge_Bigger' 
     1   125    19  5.000000000000E-009      0 'Surface_Recharge_Bigger' 
     1   125    18  5.000000000000E-009      0 'Surface_Recharge_Bigger' 
     1   125    17  5.000000000000E-009      0 'Surface_Recharge_Bigger' 
     1   125    16  5.000000000000E-009      0 'Surface_Recharge_Bigger' 
     1   125    15  5.000000000000E-009      0 'Surface_Recharge_Bigger' 
     1   125    14  5.000000000000E-009      0 'Surface_Recharge_Bigger' 
     1   125    13  5.000000000000E-009      0 'Surface_Recharge_Bigger' 
     1   125    12  5.000000000000E-009      0 'Surface_Recharge_Bigger' 
     1   125    11  5.000000000000E-009      0 'Surface_Recharge_Bigger' 
     1   125    10  5.000000000000E-009      0 'Surface_Recharge_Bigger' 
     1   125     9  5.000000000000E-009      0 'Surface_Recharge_Bigger' 
     1   125     8  5.000000000000E-009      0 'Surface_Recharge_Bigger' 
     1   125     7  5.000000000000E-009      0 'Surface_Recharge_Bigger' 
     1   125     6  5.000000000000E-009      0 'Surface_Recharge_Bigger' 
     1   125     5  5.000000000000E-009      0 'Surface_Recharge_Bigger' 
     1   125     4  5.000000000000E-009      0 'Surface_Recharge_Bigger' 
     1   125     3  5.000000000000E-009      0 'Surface_Recharge_Bigger' 
     1   125     2  5.000000000000E-009      0 'Surface_Recharge_Bigger' 
     1   124   103  5.000000000000E-009      0 'Surface_Recharge_Bigger' 
     1   124   102  5.000000000000E-009      0 'Surface_Recharge_Bigger' 
     1   124   101  5.000000000000E-009      0 'Surface_Recharge_Bigger' 
     1   124   100  5.000000000000E-009      0 'Surface_Recharge_Bigger' 
     1   124    99  5.000000000000E-009      0 'Surface_Recharge_Bigger' 
     1   124    98  5.000000000000E-009      0 'Surface_Recharge_Bigger' 
     1   124    97  5.000000000000E-009      0 'Surface_Recharge_Bigger' 
     1   124    96  5.000000000000E-009      0 'Surface_Recharge_Bigger' 
     1   124    95  5.000000000000E-009      0 'Surface_Recharge_Bigger' 
     1   124    94  5.000000000000E-009      0 'Surface_Recharge_Bigger' 
     1   124    93  5.000000000000E-009      0 'Surface_Recharge_Bigger' 
     1   124    92  5.000000000000E-009      0 'Surface_Recharge_Bigger' 
     1   124    91  5.000000000000E-009      0 'Surface_Recharge_Bigger' 
     1   124    90  5.000000000000E-009      0 'Surface_Recharge_Bigger' 
     1   124    89  5.000000000000E-009      0 'Surface_Recharge_Bigger' 
     1   124    88  5.000000000000E-009      0 'Surface_Recharge_Bigger' 
     1   124    87  5.000000000000E-009      0 'Surface_Recharge_Bigger' 
     1   124    86  5.000000000000E-009      0 'Surface_Recharge_Bigger' 
     1   124    85  5.000000000000E-009      0 'Surface_Recharge_Bigger' 
     1   124    84  5.000000000000E-009      0 'Surface_Recharge_Bigger' 
     1   124    83  5.000000000000E-009      0 'Surface_Recharge_Bigger' 
     1   124    82  5.000000000000E-009      0 'Surface_Recharge_Bigger' 
     1   124    81  5.000000000000E-009      0 'Surface_Recharge_Bigger' 
     1   124    80  5.000000000000E-009      0 'Surface_Recharge_Bigger' 
     1   124    79  5.000000000000E-009      0 'Surface_Recharge_Bigger' 
     1   124    78  5.000000000000E-009      0 'Surface_Recharge_Bigger' 
     1   124    77  5.000000000000E-009      0 'Surface_Recharge_Bigger' 
     1   124    76  5.000000000000E-009      0 'Surface_Recharge_Bigger' 
     1   124    75  5.000000000000E-009      0 'Surface_Recharge_Bigger' 
     1   124    74  5.000000000000E-009      0 'Surface_Recharge_Bigger' 
     1   124    73  5.000000000000E-009      0 'Surface_Recharge_Bigger' 
     1   124    72  5.000000000000E-009      0 'Surface_Recharge_Bigger' 
     1   124    71  5.000000000000E-009      0 'Surface_Recharge_Bigger' 
     1   124    70  5.000000000000E-009      0 'Surface_Recharge_Bigger' 
     1   124    69  5.000000000000E-009      0 'Surface_Recharge_Bigger' 
     1   124    68  5.000000000000E-009      0 'Surface_Recharge_Bigger' 
     1   124    67  5.000000000000E-009      0 'Surface_Recharge_Bigger' 
     1   124    66  5.000000000000E-009      0 'Surface_Recharge_Bigger' 
     1   124    65  5.000000000000E-009      0 'Surface_Recharge_Bigger' 
     1   124    64  5.000000000000E-009      0 'Surface_Recharge_Bigger' 
     1   124    63  5.000000000000E-009      0 'Surface_Recharge_Bigger' 
     1   124    62  5.000000000000E-009      0 'Surface_Recharge_Bigger' 
     1   124    61  5.000000000000E-009      0 'Surface_Recharge_Bigger' 
     1   124    60  5.000000000000E-009      0 'Surface_Recharge_Bigger' 
     1   124    59  5.000000000000E-009      0 'Surface_Recharge_Bigger' 
     1   124    58  5.000000000000E-009      0 'Surface_Recharge_Bigger' 
     1   124    57  5.000000000000E-009      0 'Surface_Recharge_Bigger' 
     1   124    56  5.000000000000E-009      0 'Surface_Recharge_Bigger' 
     1   124    55  5.000000000000E-009      0 'Surface_Recharge_Bigger' 
     1   124    54  5.000000000000E-009      0 'Surface_Recharge_Bigger' 
     1   124    53  5.000000000000E-009      0 'Surface_Recharge_Bigger' 
     1   124    52  5.000000000000E-009      0 'Surface_Recharge_Bigger' 
     1   124    51  5.000000000000E-009      0 'Surface_Recharge_Bigger' 
     1   124    50  5.000000000000E-009      0 'Surface_Recharge_Bigger' 
     1   124    49  5.000000000000E-009      0 'Surface_Recharge_Bigger' 
     1   124    48  5.000000000000E-009      0 'Surface_Recharge_Bigger' 
     1   124    47  5.000000000000E-009      0 'Surface_Recharge_Bigger' 
     1   124    46  5.000000000000E-009      0 'Surface_Recharge_Bigger' 
     1   124    45  5.000000000000E-009      0 'Surface_Recharge_Bigger' 
     1   124    44  5.000000000000E-009      0 'Surface_Recharge_Bigger' 
     1   124    43  5.000000000000E-009      0 'Surface_Recharge_Bigger' 
     1   124    42  5.000000000000E-009      0 'Surface_Recharge_Bigger' 
     1   124    41  5.000000000000E-009      0 'Surface_Recharge_Bigger' 
     1   124    40  5.000000000000E-009      0 'Surface_Recharge_Bigger' 
     1   124    39  5.000000000000E-009      0 'Surface_Recharge_Bigger' 
     1   124    38  5.000000000000E-009      0 'Surface_Recharge_Bigger' 
     1   124    37  5.000000000000E-009      0 'Surface_Recharge_Bigger' 
     1   124    36  5.000000000000E-009      0 'Surface_Recharge_Bigger' 
     1   124    35  5.000000000000E-009      0 'Surface_Recharge_Bigger' 
     1   124    34  5.000000000000E-009      0 'Surface_Recharge_Bigger' 
     1   124    33  5.000000000000E-009      0 'Surface_Recharge_Bigger' 
     1   124    32  5.000000000000E-009      0 'Surface_Recharge_Bigger' 
     1   124    31  5.000000000000E-009      0 'Surface_Recharge_Bigger' 
     1   124    30  5.000000000000E-009      0 'Surface_Recharge_Bigger' 
     1   124    29  5.000000000000E-009      0 'Surface_Recharge_Bigger' 
     1   124    28  5.000000000000E-009      0 'Surface_Recharge_Bigger' 
     1   124    27  5.000000000000E-009      0 'Surface_Recharge_Bigger' 
     1   124    26  5.000000000000E-009      0 'Surface_Recharge_Bigger' 
     1   124    25  5.000000000000E-009      0 'Surface_Recharge_Bigger' 
     1   124    24  5.000000000000E-009      0 'Surface_Recharge_Bigger' 
     1   124    23  5.000000000000E-009      0 'Surface_Recharge_Bigger' 
     1   124    22  5.000000000000E-009      0 'Surface_Recharge_Bigger' 
     1   124    21  5.000000000000E-009      0 'Surface_Recharge_Bigger' 
     1   124    20  5.000000000000E-009      0 'Surface_Recharge_Bigger' 
     1   124    19  5.000000000000E-009      0 'Surface_Recharge_Bigger' 
     1   124    18  5.000000000000E-009      0 'Surface_Recharge_Bigger' 
     1   124    17  5.000000000000E-009      0 'Surface_Recharge_Bigger' 
     1   124    16  5.000000000000E-009      0 'Surface_Recharge_Bigger' 
     1   124    15  5.000000000000E-009      0 'Surface_Recharge_Bigger' 
     1   124    14  5.000000000000E-009      0 'Surface_Recharge_Bigger' 
     1   124    13  5.000000000000E-009      0 'Surface_Recharge_Bigger' 
     1   124    12  5.000000000000E-009      0 'Surface_Recharge_Bigger' 
     1   124    11  5.000000000000E-009      0 'Surface_Recharge_Bigger' 
     1   124    10  5.000000000000E-009      0 'Surface_Recharge_Bigger' 
     1   124     9  5.000000000000E-009      0 'Surface_Recharge_Bigger' 
     1   124     8  5.000000000000E-009      0 'Surface_Recharge_Bigger' 
     1   124     7  5.000000000000E-009      0 'Surface_Recharge_Bigger' 
     1   124     6  5.000000000000E-009      0 'Surface_Recharge_Bigger' 