# GHB: General-Head Boundary package file created on 2025/11/28 by ModelMuse version 5.4.0.0.
BEGIN OPTIONS
    AUXILIARY IFACE
    BOUNDNAMES
    PRINT_INPUT
    SAVE_FLOWS
END OPTIONS

BEGIN DIMENSIONS
  MAXBOUND   434
END DIMENSIONS

BEGIN PERIOD      1
     1   127     2  3.760000000000E+001   9.000000000000E-004      0 'South_Boundary'  # Data Set 6: Layer Row Column Bhead Cond IFACE boundname
     2   127     2  3.760000000000E+001   1.110000000000E-005      0 'South_Boundary'  # Data Set 6: Layer Row Column Bhead Cond IFACE boundname
     1   127     3  3.760000000000E+001   9.000000000000E-004      0 'South_Boundary'  # Data Set 6: Layer Row Column Bhead Cond IFACE boundname
     2   127     3  3.760000000000E+001   1.110000000000E-005      0 'South_Boundary'  # Data Set 6: Layer Row Column Bhead Cond IFACE boundname
     1   127     4  3.760000000000E+001   9.000000000000E-004      0 'South_Boundary'  # Data Set 6: Layer Row Column Bhead Cond IFACE boundname
     2   127     4  3.760000000000E+001   1.110000000000E-005      0 'South_Boundary'  # Data Set 6: Layer Row Column Bhead Cond IFACE boundname
     1   127     5  3.760000000000E+001   9.000000000000E-004      0 'South_Boundary'  # Data Set 6: Layer Row Column Bhead Cond IFACE boundname
     2   127     5  3.760000000000E+001   1.110000000000E-005      0 'South_Boundary'  # Data Set 6: Layer Row Column Bhead Cond IFACE boundname
     1   127     6  3.760000000000E+001   9.000000000000E-004      0 'South_Boundary'  # Data Set 6: Layer Row Column Bhead Cond IFACE boundname
     2   127     6  3.760000000000E+001   1.110000000000E-005      0 'South_Boundary'  # Data Set 6: Layer Row Column Bhead Cond IFACE boundname
     1   127     7  3.760000000000E+001   9.000000000000E-004      0 'South_Boundary'  # Data Set 6: Layer Row Column Bhead Cond IFACE boundname
     2   127     7  3.760000000000E+001   1.110000000000E-005      0 'South_Boundary'  # Data Set 6: Layer Row Column Bhead Cond IFACE boundname
     1   127     8  3.760000000000E+001   9.000000000000E-004      0 'South_Boundary'  # Data Set 6: Layer Row Column Bhead Cond IFACE boundname
     2   127     8  3.760000000000E+001   1.110000000000E-005      0 'South_Boundary'  # Data Set 6: Layer Row Column Bhead Cond IFACE boundname
     1   127     9  3.760000000000E+001   9.000000000000E-004      0 'South_Boundary'  # Data Set 6: Layer Row Column Bhead Cond IFACE boundname
     2   127     9  3.760000000000E+001   1.110000000000E-005      0 'South_Boundary'  # Data Set 6: Layer Row Column Bhead Cond IFACE boundname
     1   127    10  3.760000000000E+001   9.000000000000E-004      0 'South_Boundary'  # Data Set 6: Layer Row Column Bhead Cond IFACE boundname
     2   127    10  3.760000000000E+001   1.110000000000E-005      0 'South_Boundary'  # Data Set 6: Layer Row Column Bhead Cond IFACE boundname
     1   127    11  3.760000000000E+001   9.000000000000E-004      0 'South_Boundary'  # Data Set 6: Layer Row Column Bhead Cond IFACE boundname
     2   127    11  3.760000000000E+001   1.110000000000E-005      0 'South_Boundary'  # Data Set 6: Layer Row Column Bhead Cond IFACE boundname
     1   127    12  3.760000000000E+001   9.000000000000E-004      0 'South_Boundary'  # Data Set 6: Layer Row Column Bhead Cond IFACE boundname
     2   127    12  3.760000000000E+001   1.110000000000E-005      0 'South_Boundary'  # Data Set 6: Layer Row Column Bhead Cond IFACE boundname
     1   127    13  3.760000000000E+001   9.000000000000E-004      0 'South_Boundary'  # Data Set 6: Layer Row Column Bhead Cond IFACE boundname
     2   127    13  3.760000000000E+001   1.110000000000E-005      0 'South_Boundary'  # Data Set 6: Layer Row Column Bhead Cond IFACE boundname
     1   127    14  3.760000000000E+001   9.000000000000E-004      0 'South_Boundary'  # Data Set 6: Layer Row Column Bhead Cond IFACE boundname
     2   127    14  3.760000000000E+001   1.110000000000E-005      0 'South_Boundary'  # Data Set 6: Layer Row Column Bhead Cond IFACE boundname
     1   127    15  3.760000000000E+001   9.000000000000E-004      0 'South_Boundary'  # Data Set 6: Layer Row Column Bhead Cond IFACE boundname
     2   127    15  3.760000000000E+001   1.110000000000E-005      0 'South_Boundary'  # Data Set 6: Layer Row Column Bhead Cond IFACE boundname
     1   127    16  3.760000000000E+001   9.000000000000E-004      0 'South_Boundary'  # Data Set 6: Layer Row Column Bhead Cond IFACE boundname
     2   127    16  3.760000000000E+001   1.110000000000E-005      0 'South_Boundary'  # Data Set 6: Layer Row Column Bhead Cond IFACE boundname
     1   127    17  3.760000000000E+001   9.000000000000E-004      0 'South_Boundary'  # Data Set 6: Layer Row Column Bhead Cond IFACE boundname
     2   127    17  3.760000000000E+001   1.110000000000E-005      0 'South_Boundary'  # Data Set 6: Layer Row Column Bhead Cond IFACE boundname
     1   127    18  3.760000000000E+001   9.000000000000E-004      0 'South_Boundary'  # Data Set 6: Layer Row Column Bhead Cond IFACE boundname
     2   127    18  3.760000000000E+001   1.110000000000E-005      0 'South_Boundary'  # Data Set 6: Layer Row Column Bhead Cond IFACE boundname
     1   127    19  3.760000000000E+001   9.000000000000E-004      0 'South_Boundary'  # Data Set 6: Layer Row Column Bhead Cond IFACE boundname
     2   127    19  3.760000000000E+001   1.110000000000E-005      0 'South_Boundary'  # Data Set 6: Layer Row Column Bhead Cond IFACE boundname
     1   127    20  3.760000000000E+001   9.000000000000E-004      0 'South_Boundary'  # Data Set 6: Layer Row Column Bhead Cond IFACE boundname
     2   127    20  3.760000000000E+001   1.110000000000E-005      0 'South_Boundary'  # Data Set 6: Layer Row Column Bhead Cond IFACE boundname
     1   127    21  3.760000000000E+001   9.000000000000E-004      0 'South_Boundary'  # Data Set 6: Layer Row Column Bhead Cond IFACE boundname
     2   127    21  3.760000000000E+001   1.110000000000E-005      0 'South_Boundary'  # Data Set 6: Layer Row Column Bhead Cond IFACE boundname
     1   127    22  3.760000000000E+001   9.000000000000E-004      0 'South_Boundary'  # Data Set 6: Layer Row Column Bhead Cond IFACE boundname
     2   127    22  3.760000000000E+001   1.110000000000E-005      0 'South_Boundary'  # Data Set 6: Layer Row Column Bhead Cond IFACE boundname
     1   127    23  3.760000000000E+001   9.000000000000E-004      0 'South_Boundary'  # Data Set 6: Layer Row Column Bhead Cond IFACE boundname
     2   127    23  3.760000000000E+001   1.110000000000E-005      0 'South_Boundary'  # Data Set 6: Layer Row Column Bhead Cond IFACE boundname
     1   127    24  3.760000000000E+001   9.000000000000E-004      0 'South_Boundary'  # Data Set 6: Layer Row Column Bhead Cond IFACE boundname
     2   127    24  3.760000000000E+001   1.110000000000E-005      0 'South_Boundary'  # Data Set 6: Layer Row Column Bhead Cond IFACE boundname
     1   127    25  3.760000000000E+001   9.000000000000E-004      0 'South_Boundary'  # Data Set 6: Layer Row Column Bhead Cond IFACE boundname
     2   127    25  3.760000000000E+001   1.110000000000E-005      0 'South_Boundary'  # Data Set 6: Layer Row Column Bhead Cond IFACE boundname
     1   127    26  3.760000000000E+001   9.000000000000E-004      0 'South_Boundary'  # Data Set 6: Layer Row Column Bhead Cond IFACE boundname
     2   127    26  3.760000000000E+001   1.110000000000E-005      0 'South_Boundary'  # Data Set 6: Layer Row Column Bhead Cond IFACE boundname
     1   127    27  3.760000000000E+001   9.000000000000E-004      0 'South_Boundary'  # Data Set 6: Layer Row Column Bhead Cond IFACE boundname
     2   127    27  3.760000000000E+001   1.110000000000E-005      0 'South_Boundary'  # Data Set 6: Layer Row Column Bhead Cond IFACE boundname
     1   127    28  3.760000000000E+001   9.000000000000E-004      0 'South_Boundary'  # Data Set 6: Layer Row Column Bhead Cond IFACE boundname
     2   127    28  3.760000000000E+001   1.110000000000E-005      0 'South_Boundary'  # Data Set 6: Layer Row Column Bhead Cond IFACE boundname
     1   127    29  3.760000000000E+001   9.000000000000E-004      0 'South_Boundary'  # Data Set 6: Layer Row Column Bhead Cond IFACE boundname
     2   127    29  3.760000000000E+001   1.110000000000E-005      0 'South_Boundary'  # Data Set 6: Layer Row Column Bhead Cond IFACE boundname
     1   127    30  3.760000000000E+001   9.000000000000E-004      0 'South_Boundary'  # Data Set 6: Layer Row Column Bhead Cond IFACE boundname
     2   127    30  3.760000000000E+001   1.110000000000E-005      0 'South_Boundary'  # Data Set 6: Layer Row Column Bhead Cond IFACE boundname
     1   127    31  3.760000000000E+001   9.000000000000E-004      0 'South_Boundary'  # Data Set 6: Layer Row Column Bhead Cond IFACE boundname
     2   127    31  3.760000000000E+001   1.110000000000E-005      0 'South_Boundary'  # Data Set 6: Layer Row Column Bhead Cond IFACE boundname
     1   127    32  3.760000000000E+001   9.000000000000E-004      0 'South_Boundary'  # Data Set 6: Layer Row Column Bhead Cond IFACE boundname
     2   127    32  3.760000000000E+001   1.110000000000E-005      0 'South_Boundary'  # Data Set 6: Layer Row Column Bhead Cond IFACE boundname
     1   127    33  3.760000000000E+001   9.000000000000E-004      0 'South_Boundary'  # Data Set 6: Layer Row Column Bhead Cond IFACE boundname
     2   127    33  3.760000000000E+001   1.110000000000E-005      0 'South_Boundary'  # Data Set 6: Layer Row Column Bhead Cond IFACE boundname
     1   127    34  3.760000000000E+001   9.000000000000E-004      0 'South_Boundary'  # Data Set 6: Layer Row Column Bhead Cond IFACE boundname
     2   127    34  3.760000000000E+001   1.110000000000E-005      0 'South_Boundary'  # Data Set 6: Layer Row Column Bhead Cond IFACE boundname
     1   127    35  3.760000000000E+001   9.000000000000E-004      0 'South_Boundary'  # Data Set 6: Layer Row Column Bhead Cond IFACE boundname
     2   127    35  3.760000000000E+001   1.110000000000E-005      0 'South_Boundary'  # Data Set 6: Layer Row Column Bhead Cond IFACE boundname
     1   127    36  3.760000000000E+001   9.000000000000E-004      0 'South_Boundary'  # Data Set 6: Layer Row Column Bhead Cond IFACE boundname
     2   127    36  3.760000000000E+001   1.110000000000E-005      0 'South_Boundary'  # Data Set 6: Layer Row Column Bhead Cond IFACE boundname
     1   127    37  3.760000000000E+001   9.000000000000E-004      0 'South_Boundary'  # Data Set 6: Layer Row Column Bhead Cond IFACE boundname
     2   127    37  3.760000000000E+001   1.110000000000E-005      0 'South_Boundary'  # Data Set 6: Layer Row Column Bhead Cond IFACE boundname
     1   127    38  3.760000000000E+001   9.000000000000E-004      0 'South_Boundary'  # Data Set 6: Layer Row Column Bhead Cond IFACE boundname
     2   127    38  3.760000000000E+001   1.110000000000E-005      0 'South_Boundary'  # Data Set 6: Layer Row Column Bhead Cond IFACE boundname
     1   127    39  3.760000000000E+001   9.000000000000E-004      0 'South_Boundary'  # Data Set 6: Layer Row Column Bhead Cond IFACE boundname
     2   127    39  3.760000000000E+001   1.110000000000E-005      0 'South_Boundary'  # Data Set 6: Layer Row Column Bhead Cond IFACE boundname
     1   127    40  3.760000000000E+001   9.000000000000E-004      0 'South_Boundary'  # Data Set 6: Layer Row Column Bhead Cond IFACE boundname
     2   127    40  3.760000000000E+001   1.110000000000E-005      0 'South_Boundary'  # Data Set 6: Layer Row Column Bhead Cond IFACE boundname
     1   127    41  3.760000000000E+001   9.000000000000E-004      0 'South_Boundary'  # Data Set 6: Layer Row Column Bhead Cond IFACE boundname
     2   127    41  3.760000000000E+001   1.110000000000E-005      0 'South_Boundary'  # Data Set 6: Layer Row Column Bhead Cond IFACE boundname
     1   127    42  3.760000000000E+001   9.000000000000E-004      0 'South_Boundary'  # Data Set 6: Layer Row Column Bhead Cond IFACE boundname
     2   127    42  3.760000000000E+001   1.110000000000E-005      0 'South_Boundary'  # Data Set 6: Layer Row Column Bhead Cond IFACE boundname
     1   127    43  3.760000000000E+001   9.000000000000E-004      0 'South_Boundary'  # Data Set 6: Layer Row Column Bhead Cond IFACE boundname
     2   127    43  3.760000000000E+001   1.110000000000E-005      0 'South_Boundary'  # Data Set 6: Layer Row Column Bhead Cond IFACE boundname
     1   127    44  3.760000000000E+001   9.000000000000E-004      0 'South_Boundary'  # Data Set 6: Layer Row Column Bhead Cond IFACE boundname
     2   127    44  3.760000000000E+001   1.110000000000E-005      0 'South_Boundary'  # Data Set 6: Layer Row Column Bhead Cond IFACE boundname
     1   127    45  3.760000000000E+001   9.000000000000E-004      0 'South_Boundary'  # Data Set 6: Layer Row Column Bhead Cond IFACE boundname
     2   127    45  3.760000000000E+001   1.110000000000E-005      0 'South_Boundary'  # Data Set 6: Layer Row Column Bhead Cond IFACE boundname
     1   127    46  3.760000000000E+001   9.000000000000E-004      0 'South_Boundary'  # Data Set 6: Layer Row Column Bhead Cond IFACE boundname
     2   127    46  3.760000000000E+001   1.110000000000E-005      0 'South_Boundary'  # Data Set 6: Layer Row Column Bhead Cond IFACE boundname
     1   127    47  3.760000000000E+001   9.000000000000E-004      0 'South_Boundary'  # Data Set 6: Layer Row Column Bhead Cond IFACE boundname
     2   127    47  3.760000000000E+001   1.110000000000E-005      0 'South_Boundary'  # Data Set 6: Layer Row Column Bhead Cond IFACE boundname
     1   127    48  3.760000000000E+001   9.000000000000E-004      0 'South_Boundary'  # Data Set 6: Layer Row Column Bhead Cond IFACE boundname
     2   127    48  3.760000000000E+001   1.110000000000E-005      0 'South_Boundary'  # Data Set 6: Layer Row Column Bhead Cond IFACE boundname
     1   127    49  3.760000000000E+001   9.000000000000E-004      0 'South_Boundary'  # Data Set 6: Layer Row Column Bhead Cond IFACE boundname
     2   127    49  3.760000000000E+001   1.110000000000E-005      0 'South_Boundary'  # Data Set 6: Layer Row Column Bhead Cond IFACE boundname
     1   127    50  3.760000000000E+001   9.000000000000E-004      0 'South_Boundary'  # Data Set 6: Layer Row Column Bhead Cond IFACE boundname
     2   127    50  3.760000000000E+001   1.110000000000E-005      0 'South_Boundary'  # Data Set 6: Layer Row Column Bhead Cond IFACE boundname
     1   127    51  3.760000000000E+001   9.000000000000E-004      0 'South_Boundary'  # Data Set 6: Layer Row Column Bhead Cond IFACE boundname
     2   127    51  3.760000000000E+001   1.110000000000E-005      0 'South_Boundary'  # Data Set 6: Layer Row Column Bhead Cond IFACE boundname
     1   127    52  3.760000000000E+001   9.000000000000E-004      0 'South_Boundary'  # Data Set 6: Layer Row Column Bhead Cond IFACE boundname
     2   127    52  3.760000000000E+001   1.110000000000E-005      0 'South_Boundary'  # Data Set 6: Layer Row Column Bhead Cond IFACE boundname
     1   127    53  3.760000000000E+001   9.000000000000E-004      0 'South_Boundary'  # Data Set 6: Layer Row Column Bhead Cond IFACE boundname
     2   127    53  3.760000000000E+001   1.110000000000E-005      0 'South_Boundary'  # Data Set 6: Layer Row Column Bhead Cond IFACE boundname
     1   127    54  3.760000000000E+001   9.000000000000E-004      0 'South_Boundary'  # Data Set 6: Layer Row Column Bhead Cond IFACE boundname
     2   127    54  3.760000000000E+001   1.110000000000E-005      0 'South_Boundary'  # Data Set 6: Layer Row Column Bhead Cond IFACE boundname
     1   127    55  3.760000000000E+001   9.000000000000E-004      0 'South_Boundary'  # Data Set 6: Layer Row Column Bhead Cond IFACE boundname
     2   127    55  3.760000000000E+001   1.110000000000E-005      0 'South_Boundary'  # Data Set 6: Layer Row Column Bhead Cond IFACE boundname
     1   127    56  3.760000000000E+001   9.000000000000E-004      0 'South_Boundary'  # Data Set 6: Layer Row Column Bhead Cond IFACE boundname
     2   127    56  3.760000000000E+001   1.110000000000E-005      0 'South_Boundary'  # Data Set 6: Layer Row Column Bhead Cond IFACE boundname
     1   127    57  3.760000000000E+001   9.000000000000E-004      0 'South_Boundary'  # Data Set 6: Layer Row Column Bhead Cond IFACE boundname
     2   127    57  3.760000000000E+001   1.110000000000E-005      0 'South_Boundary'  # Data Set 6: Layer Row Column Bhead Cond IFACE boundname
     1   127    58  3.760000000000E+001   9.000000000000E-004      0 'South_Boundary'  # Data Set 6: Layer Row Column Bhead Cond IFACE boundname
     2   127    58  3.760000000000E+001   1.110000000000E-005      0 'South_Boundary'  # Data Set 6: Layer Row Column Bhead Cond IFACE boundname
     1   127    59  3.760000000000E+001   9.000000000000E-004      0 'South_Boundary'  # Data Set 6: Layer Row Column Bhead Cond IFACE boundname
     2   127    59  3.760000000000E+001   1.110000000000E-005      0 'South_Boundary'  # Data Set 6: Layer Row Column Bhead Cond IFACE boundname
     1   127    60  3.760000000000E+001   9.000000000000E-004      0 'South_Boundary'  # Data Set 6: Layer Row Column Bhead Cond IFACE boundname
     2   127    60  3.760000000000E+001   1.110000000000E-005      0 'South_Boundary'  # Data Set 6: Layer Row Column Bhead Cond IFACE boundname
     1   127    61  3.760000000000E+001   9.000000000000E-004      0 'South_Boundary'  # Data Set 6: Layer Row Column Bhead Cond IFACE boundname
     2   127    61  3.760000000000E+001   1.110000000000E-005      0 'South_Boundary'  # Data Set 6: Layer Row Column Bhead Cond IFACE boundname
     1   127    62  3.760000000000E+001   9.000000000000E-004      0 'South_Boundary'  # Data Set 6: Layer Row Column Bhead Cond IFACE boundname
     2   127    62  3.760000000000E+001   1.110000000000E-005      0 'South_Boundary'  # Data Set 6: Layer Row Column Bhead Cond IFACE boundname
     1   127    63  3.760000000000E+001   9.000000000000E-004      0 'South_Boundary'  # Data Set 6: Layer Row Column Bhead Cond IFACE boundname
     2   127    63  3.760000000000E+001   1.110000000000E-005      0 'South_Boundary'  # Data Set 6: Layer Row Column Bhead Cond IFACE boundname
     1   127    64  3.760000000000E+001   9.000000000000E-004      0 'South_Boundary'  # Data Set 6: Layer Row Column Bhead Cond IFACE boundname
     2   127    64  3.760000000000E+001   1.110000000000E-005      0 'South_Boundary'  # Data Set 6: Layer Row Column Bhead Cond IFACE boundname
     1   127    65  3.760000000000E+001   9.000000000000E-004      0 'South_Boundary'  # Data Set 6: Layer Row Column Bhead Cond IFACE boundname
     2   127    65  3.760000000000E+001   1.110000000000E-005      0 'South_Boundary'  # Data Set 6: Layer Row Column Bhead Cond IFACE boundname
     1   127    66  3.760000000000E+001   9.000000000000E-004      0 'South_Boundary'  # Data Set 6: Layer Row Column Bhead Cond IFACE boundname
     2   127    66  3.760000000000E+001   1.110000000000E-005      0 'South_Boundary'  # Data Set 6: Layer Row Column Bhead Cond IFACE boundname
     1   127    67  3.760000000000E+001   9.000000000000E-004      0 'South_Boundary'  # Data Set 6: Layer Row Column Bhead Cond IFACE boundname
     2   127    67  3.760000000000E+001   1.110000000000E-005      0 'South_Boundary'  # Data Set 6: Layer Row Column Bhead Cond IFACE boundname
     1   127    68  3.760000000000E+001   9.000000000000E-004      0 'South_Boundary'  # Data Set 6: Layer Row Column Bhead Cond IFACE boundname
     2   127    68  3.760000000000E+001   1.110000000000E-005      0 'South_Boundary'  # Data Set 6: Layer Row Column Bhead Cond IFACE boundname
     1   127    69  3.760000000000E+001   9.000000000000E-004      0 'South_Boundary'  # Data Set 6: Layer Row Column Bhead Cond IFACE boundname
     2   127    69  3.760000000000E+001   1.110000000000E-005      0 'South_Boundary'  # Data Set 6: Layer Row Column Bhead Cond IFACE boundname
     1   127    70  3.760000000000E+001   9.000000000000E-004      0 'South_Boundary'  # Data Set 6: Layer Row Column Bhead Cond IFACE boundname
     2   127    70  3.760000000000E+001   1.110000000000E-005      0 'South_Boundary'  # Data Set 6: Layer Row Column Bhead Cond IFACE boundname
     1   127    71  3.760000000000E+001   9.000000000000E-004      0 'South_Boundary'  # Data Set 6: Layer Row Column Bhead Cond IFACE boundname
     2   127    71  3.760000000000E+001   1.110000000000E-005      0 'South_Boundary'  # Data Set 6: Layer Row Column Bhead Cond IFACE boundname
     1   127    72  3.760000000000E+001   9.000000000000E-004      0 'South_Boundary'  # Data Set 6: Layer Row Column Bhead Cond IFACE boundname
     2   127    72  3.760000000000E+001   1.110000000000E-005      0 'South_Boundary'  # Data Set 6: Layer Row Column Bhead Cond IFACE boundname
     1   127    73  3.760000000000E+001   9.000000000000E-004      0 'South_Boundary'  # Data Set 6: Layer Row Column Bhead Cond IFACE boundname
     2   127    73  3.760000000000E+001   1.110000000000E-005      0 'South_Boundary'  # Data Set 6: Layer Row Column Bhead Cond IFACE boundname
     1   127    74  3.760000000000E+001   9.000000000000E-004      0 'South_Boundary'  # Data Set 6: Layer Row Column Bhead Cond IFACE boundname
     2   127    74  3.760000000000E+001   1.110000000000E-005      0 'South_Boundary'  # Data Set 6: Layer Row Column Bhead Cond IFACE boundname
     1   127    75  3.760000000000E+001   9.000000000000E-004      0 'South_Boundary'  # Data Set 6: Layer Row Column Bhead Cond IFACE boundname
     2   127    75  3.760000000000E+001   1.110000000000E-005      0 'South_Boundary'  # Data Set 6: Layer Row Column Bhead Cond IFACE boundname
     1   127    76  3.760000000000E+001   9.000000000000E-004      0 'South_Boundary'  # Data Set 6: Layer Row Column Bhead Cond IFACE boundname
     2   127    76  3.760000000000E+001   1.110000000000E-005      0 'South_Boundary'  # Data Set 6: Layer Row Column Bhead Cond IFACE boundname
     1   127    77  3.760000000000E+001   9.000000000000E-004      0 'South_Boundary'  # Data Set 6: Layer Row Column Bhead Cond IFACE boundname
     2   127    77  3.760000000000E+001   1.110000000000E-005      0 'South_Boundary'  # Data Set 6: Layer Row Column Bhead Cond IFACE boundname
     1   127    78  3.760000000000E+001   9.000000000000E-004      0 'South_Boundary'  # Data Set 6: Layer Row Column Bhead Cond IFACE boundname
     2   127    78  3.760000000000E+001   1.110000000000E-005      0 'South_Boundary'  # Data Set 6: Layer Row Column Bhead Cond IFACE boundname
     1   127    79  3.760000000000E+001   9.000000000000E-004      0 'South_Boundary'  # Data Set 6: Layer Row Column Bhead Cond IFACE boundname
     2   127    79  3.760000000000E+001   1.110000000000E-005      0 'South_Boundary'  # Data Set 6: Layer Row Column Bhead Cond IFACE boundname
     1   127    80  3.760000000000E+001   9.000000000000E-004      0 'South_Boundary'  # Data Set 6: Layer Row Column Bhead Cond IFACE boundname
     2   127    80  3.760000000000E+001   1.110000000000E-005      0 'South_Boundary'  # Data Set 6: Layer Row Column Bhead Cond IFACE boundname
     1   127    81  3.760000000000E+001   9.000000000000E-004      0 'South_Boundary'  # Data Set 6: Layer Row Column Bhead Cond IFACE boundname
     2   127    81  3.760000000000E+001   1.110000000000E-005      0 'South_Boundary'  # Data Set 6: Layer Row Column Bhead Cond IFACE boundname
     1   127    82  3.760000000000E+001   9.000000000000E-004      0 'South_Boundary'  # Data Set 6: Layer Row Column Bhead Cond IFACE boundname
     2   127    82  3.760000000000E+001   1.110000000000E-005      0 'South_Boundary'  # Data Set 6: Layer Row Column Bhead Cond IFACE boundname
     1   127    83  3.760000000000E+001   9.000000000000E-004      0 'South_Boundary'  # Data Set 6: Layer Row Column Bhead Cond IFACE boundname
     2   127    83  3.760000000000E+001   1.110000000000E-005      0 'South_Boundary'  # Data Set 6: Layer Row Column Bhead Cond IFACE boundname
     1   127    84  3.760000000000E+001   9.000000000000E-004      0 'South_Boundary'  # Data Set 6: Layer Row Column Bhead Cond IFACE boundname
     2   127    84  3.760000000000E+001   1.110000000000E-005      0 'South_Boundary'  # Data Set 6: Layer Row Column Bhead Cond IFACE boundname
     1   127    85  3.760000000000E+001   9.000000000000E-004      0 'South_Boundary'  # Data Set 6: Layer Row Column Bhead Cond IFACE boundname
     2   127    85  3.760000000000E+001   1.110000000000E-005      0 'South_Boundary'  # Data Set 6: Layer Row Column Bhead Cond IFACE boundname
     1   127    86  3.760000000000E+001   9.000000000000E-004      0 'South_Boundary'  # Data Set 6: Layer Row Column Bhead Cond IFACE boundname
     2   127    86  3.760000000000E+001   1.110000000000E-005      0 'South_Boundary'  # Data Set 6: Layer Row Column Bhead Cond IFACE boundname
     1   127    87  3.760000000000E+001   9.000000000000E-004      0 'South_Boundary'  # Data Set 6: Layer Row Column Bhead Cond IFACE boundname
     2   127    87  3.760000000000E+001   1.110000000000E-005      0 'South_Boundary'  # Data Set 6: Layer Row Column Bhead Cond IFACE boundname
     1   127    88  3.760000000000E+001   9.000000000000E-004      0 'South_Boundary'  # Data Set 6: Layer Row Column Bhead Cond IFACE boundname
     2   127    88  3.760000000000E+001   1.110000000000E-005      0 'South_Boundary'  # Data Set 6: Layer Row Column Bhead Cond IFACE boundname
     1   127    89  3.760000000000E+001   9.000000000000E-004      0 'South_Boundary'  # Data Set 6: Layer Row Column Bhead Cond IFACE boundname
     2   127    89  3.760000000000E+001   1.110000000000E-005      0 'South_Boundary'  # Data Set 6: Layer Row Column Bhead Cond IFACE boundname
     1   127    90  3.760000000000E+001   9.000000000000E-004      0 'South_Boundary'  # Data Set 6: Layer Row Column Bhead Cond IFACE boundname
     2   127    90  3.760000000000E+001   1.110000000000E-005      0 'South_Boundary'  # Data Set 6: Layer Row Column Bhead Cond IFACE boundname
     1   127    91  3.760000000000E+001   9.000000000000E-004      0 'South_Boundary'  # Data Set 6: Layer Row Column Bhead Cond IFACE boundname
     2   127    91  3.760000000000E+001   1.110000000000E-005      0 'South_Boundary'  # Data Set 6: Layer Row Column Bhead Cond IFACE boundname
     1   127    92  3.760000000000E+001   9.000000000000E-004      0 'South_Boundary'  # Data Set 6: Layer Row Column Bhead Cond IFACE boundname
     2   127    92  3.760000000000E+001   1.110000000000E-005      0 'South_Boundary'  # Data Set 6: Layer Row Column Bhead Cond IFACE boundname
     1     1     1  3.720000000000E+001   9.000000000000E-004      0 'North_Boundary'  # Data Set 6: Layer Row Column Bhead Cond IFACE boundname
     2     1     1  3.720000000000E+001   3.000000000000E-005      0 'North_Boundary'  # Data Set 6: Layer Row Column Bhead Cond IFACE boundname
     1     1     2  3.720000000000E+001   9.000000000000E-004      0 'North_Boundary'  # Data Set 6: Layer Row Column Bhead Cond IFACE boundname
     2     1     2  3.720000000000E+001   3.000000000000E-005      0 'North_Boundary'  # Data Set 6: Layer Row Column Bhead Cond IFACE boundname
     1     1     3  3.720000000000E+001   9.000000000000E-004      0 'North_Boundary'  # Data Set 6: Layer Row Column Bhead Cond IFACE boundname
     2     1     3  3.720000000000E+001   3.000000000000E-005      0 'North_Boundary'  # Data Set 6: Layer Row Column Bhead Cond IFACE boundname
     1     1     4  3.720000000000E+001   9.000000000000E-004      0 'North_Boundary'  # Data Set 6: Layer Row Column Bhead Cond IFACE boundname
     2     1     4  3.720000000000E+001   3.000000000000E-005      0 'North_Boundary'  # Data Set 6: Layer Row Column Bhead Cond IFACE boundname
     1     1     5  3.720000000000E+001   9.000000000000E-004      0 'North_Boundary'  # Data Set 6: Layer Row Column Bhead Cond IFACE boundname
     2     1     5  3.720000000000E+001   3.000000000000E-005      0 'North_Boundary'  # Data Set 6: Layer Row Column Bhead Cond IFACE boundname
     1     1     6  3.720000000000E+001   9.000000000000E-004      0 'North_Boundary'  # Data Set 6: Layer Row Column Bhead Cond IFACE boundname
     2     1     6  3.720000000000E+001   3.000000000000E-005      0 'North_Boundary'  # Data Set 6: Layer Row Column Bhead Cond IFACE boundname
     1     1     7  3.720000000000E+001   9.000000000000E-004      0 'North_Boundary'  # Data Set 6: Layer Row Column Bhead Cond IFACE boundname
     2     1     7  3.720000000000E+001   3.000000000000E-005      0 'North_Boundary'  # Data Set 6: Layer Row Column Bhead Cond IFACE boundname
     1     1     8  3.720000000000E+001   9.000000000000E-004      0 'North_Boundary'  # Data Set 6: Layer Row Column Bhead Cond IFACE boundname
     2     1     8  3.720000000000E+001   3.000000000000E-005      0 'North_Boundary'  # Data Set 6: Layer Row Column Bhead Cond IFACE boundname
     1     1     9  3.720000000000E+001   9.000000000000E-004      0 'North_Boundary'  # Data Set 6: Layer Row Column Bhead Cond IFACE boundname
     2     1     9  3.720000000000E+001   3.000000000000E-005      0 'North_Boundary'  # Data Set 6: Layer Row Column Bhead Cond IFACE boundname
     1     1    10  3.720000000000E+001   9.000000000000E-004      0 'North_Boundary'  # Data Set 6: Layer Row Column Bhead Cond IFACE boundname
     2     1    10  3.720000000000E+001   3.000000000000E-005      0 'North_Boundary'  # Data Set 6: Layer Row Column Bhead Cond IFACE boundname
     1     1    11  3.720000000000E+001   9.000000000000E-004      0 'North_Boundary'  # Data Set 6: Layer Row Column Bhead Cond IFACE boundname
     2     1    11  3.720000000000E+001   3.000000000000E-005      0 'North_Boundary'  # Data Set 6: Layer Row Column Bhead Cond IFACE boundname
     1     1    12  3.720000000000E+001   9.000000000000E-004      0 'North_Boundary'  # Data Set 6: Layer Row Column Bhead Cond IFACE boundname