# File generated by Flopy version 3.9.5 on 11/25/2025 at 16:20:48.
BEGIN OPTIONS
  PRINT_INPUT
END OPTIONS

BEGIN TIMING
  TDIS6  Transient_cali.tdis
END TIMING

BEGIN MODELS
  gwf6  Transient_cali.nam  modflow
END MODELS

BEGIN EXCHANGES
END EXCHANGES

BEGIN SOLUTIONGROUP  1
  MXITER  1
  ims6  Transient_cali.ims  modflow
END SOLUTIONGROUP  1

