# File generated by Flopy version 3.9.5 on 11/25/2025 at 16:20:49.
BEGIN OPTIONS
  SAVE_FLOWS
END OPTIONS

BEGIN GRIDDATA
  iconvert  LAYERED
    CONSTANT  1
    CONSTANT  0
  ss  LAYERED
    INTERNAL  FACTOR  1.0  IPRN  12
      2.66000000E-05  2.66000000E-05  2.66000000E-05  2.66000000E-05  2.66000000E-05  2.66000000E-05  2.66000000E-05  2.66000000E-05  2.66000000E-05  2.66000000E-05  2.66000000E-05  2.66000000E-05  2.66000000E-05  2.66000000E-05  2.66000000E-05  2.66000000E-05  2.66000000E-05  2.66000000E-05  2.66000000E-05  2.66000000E-05  2.66000000E-05  2.66000000E-05  2.66000000E-05  2.66000000E-05  2.66000000E-05  2.66000000E-05  2.66000000E-05  2.66000000E-05  2.66000000E-05  2.66000000E-05  2.66000000E-05  2.66000000E-05  2.66000000E-05  2.66000000E-05  2.66000000E-05  2.66000000E-05  2.66000000E-05  2.66000000E-05  2.66000000E-05  2.66000000E-05  2.66000000E-05  2.66000000E-05  2.66000000E-05  2.66000000E-05  2.66000000E-05  2.66000000E-05  2.66000000E-05  2.66000000E-05  2.66000000E-05  2.66000000E-05  2.66000000E-05  2.66000000E-05  2.66000000E-05  2.66000000E-05  2.66000000E-05  2.66000000E-05  2.66000000E-05  2.66000000E-05  2.66000000E-05  2.66000000E-05  2.66000000E-05  2.66000000E-05  2.66000000E-05  2.66000000E-05  2.66000000E-05  2.66000000E-05  2.66000000E-05  2.66000000E-05  2.66000000E-05  2.66000000E-05  2.66000000E-05  2.66000000E-05  2.66000000E-05  2.66000000E-05  2.66000000E-05  2.66000000E-05  2.66000000E-05  2.66000000E-05  2.66000000E-05  2.66000000E-05  2.66000000E-05  2.66000000E-05  2.66000000E-05  2.66000000E-05  2.66000000E-05  2.66000000E-05  2.66000000E-05  2.66000000E-05  2.66000000E-05  2.66000000E-05  2.66000000E-05  2.66000000E-05  2.66000000E-05  2.66000000E-05  2.66000000E-05  2.66000000E-05  2.66000000E-05  2.66000000E-05  2.66000000E-05  2.66000000E-05  2.66000000E-05  2.66000000E-05  2.66000000E-05  2.66000000E-05  2.66000000E-05  2.66000000E-05  2.66000000E-05  2.66000000E-05  2.66000000E-05  2.66000000E-05  2.66000000E-05  2.66000000E-05  2.66000000E-05  2.66000000E-05  2.66000000E-05  2.66000000E-05  2.66000000E-05  2.66000000E-05  2.66000000E-05  2.66000000E-05  2.66000000E-05  2.66000000E-05  2.66000000E-05  2.66000000E-05  2.66000000E-05  2.66000000E-05  2.66000000E-05  2.66000000E-05
      2.66000000E-05  2.66000000E-05  2.66000000E-05  2.66000000E-05  2.66000000E-05  2.66000000E-05  2.66000000E-05  2.66000000E-05  2.66000000E-05  2.66000000E-05  2.66000000E-05  2.66000000E-05  2.66000000E-05  2.66000000E-05  2.66000000E-05  2.66000000E-05  2.66000000E-05  2.66000000E-05  2.66000000E-05  2.66000000E-05  2.66000000E-05  2.66000000E-05  2.66000000E-05  2.66000000E-05  2.66000000E-05  2.66000000E-05  2.66000000E-05  2.66000000E-05  2.66000000E-05  2.66000000E-05  2.66000000E-05  2.66000000E-05  2.66000000E-05  2.66000000E-05  2.66000000E-05  2.66000000E-05  2.66000000E-05  2.66000000E-05  2.66000000E-05  2.66000000E-05  2.66000000E-05  2.66000000E-05  2.66000000E-05  2.66000000E-05  2.66000000E-05  2.66000000E-05  2.66000000E-05  2.66000000E-05  2.66000000E-05  2.66000000E-05  2.66000000E-05  2.66000000E-05  2.66000000E-05  2.66000000E-05  2.66000000E-05  2.66000000E-05  2.66000000E-05  2.66000000E-05  2.66000000E-05  2.66000000E-05  2.66000000E-05  2.66000000E-05  2.66000000E-05  2.66000000E-05  2.66000000E-05  2.66000000E-05  2.66000000E-05  2.66000000E-05  2.66000000E-05  2.66000000E-05  2.66000000E-05  2.66000000E-05  2.66000000E-05  2.66000000E-05  2.66000000E-05  2.66000000E-05  2.66000000E-05  2.66000000E-05  2.66000000E-05  2.66000000E-05  2.66000000E-05  2.66000000E-05  2.66000000E-05  2.66000000E-05  2.66000000E-05  2.66000000E-05  2.66000000E-05  2.66000000E-05  2.66000000E-05  2.66000000E-05  2.66000000E-05  2.66000000E-05  2.66000000E-05  2.66000000E-05  2.66000000E-05  2.66000000E-05  2.66000000E-05  2.66000000E-05  2.66000000E-05  2.66000000E-05  2.66000000E-05  2.66000000E-05  2.66000000E-05  2.66000000E-05  2.66000000E-05  2.66000000E-05  2.66000000E-05  2.66000000E-05  2.66000000E-05  2.66000000E-05  2.66000000E-05  2.66000000E-05  2.66000000E-05  2.66000000E-05  2.66000000E-05  2.66000000E-05  2.66000000E-05  2.66000000E-05  2.66000000E-05  2.66000000E-05  2.66000000E-05  2.66000000E-05  2.66000000E-05  2.66000000E-05  2.66000000E-05  2.66000000E-05  2.66000000E-05  2.66000000E-05
      2.66000000E-05  2.66000000E-05  2.66000000E-05  2.66000000E-05  2.66000000E-05  2.66000000E-05  2.66000000E-05  2.66000000E-05  2.66000000E-05  2.66000000E-05  2.66000000E-05  2.66000000E-05  2.66000000E-05  2.66000000E-05  2.66000000E-05  2.66000000E-05  2.66000000E-05  2.66000000E-05  2.66000000E-05  2.66000000E-05  2.66000000E-05  2.66000000E-05  2.66000000E-05  2.66000000E-05  2.66000000E-05  2.66000000E-05  2.66000000E-05  2.66000000E-05  2.66000000E-05  2.66000000E-05  2.66000000E-05  2.66000000E-05  2.66000000E-05  2.66000000E-05  2.66000000E-05  2.66000000E-05  2.66000000E-05  2.66000000E-05  2.66000000E-05  2.66000000E-05  2.66000000E-05  2.66000000E-05  2.66000000E-05  2.66000000E-05  2.66000000E-05  2.66000000E-05  2.66000000E-05  2.66000000E-05  2.66000000E-05  2.66000000E-05  2.66000000E-05  2.66000000E-05  2.66000000E-05  2.66000000E-05  2.66000000E-05  2.66000000E-05  2.66000000E-05  2.66000000E-05  2.66000000E-05  2.66000000E-05  2.66000000E-05  2.66000000E-05  2.66000000E-05  2.66000000E-05  2.66000000E-05  2.66000000E-05  2.66000000E-05  2.66000000E-05  2.66000000E-05  2.66000000E-05  2.66000000E-05  2.66000000E-05  2.66000000E-05  2.66000000E-05  2.66000000E-05  2.66000000E-05  2.66000000E-05  2.66000000E-05  2.66000000E-05  2.66000000E-05  2.66000000E-05  2.66000000E-05  2.66000000E-05  2.66000000E-05  2.66000000E-05  2.66000000E-05  2.66000000E-05  2.66000000E-05  2.66000000E-05  2.66000000E-05  2.66000000E-05  2.66000000E-05  2.66000000E-05  2.66000000E-05  2.66000000E-05  2.66000000E-05  2.66000000E-05  2.66000000E-05  2.66000000E-05  2.66000000E-05  2.66000000E-05  2.66000000E-05  2.66000000E-05  2.66000000E-05  2.66000000E-05  2.66000000E-05  2.66000000E-05  2.66000000E-05  2.66000000E-05  2.66000000E-05  2.66000000E-05  2.66000000E-05  2.66000000E-05  2.66000000E-05  2.66000000E-05  2.66000000E-05  2.66000000E-05  2.66000000E-05  2.66000000E-05  2.66000000E-05  2.66000000E-05  2.66000000E-05  2.66000000E-05  2.66000000E-05  2.66000000E-05  2.66000000E-05  2.66000000E-05  2.66000000E-05
      2.66000000E-05  2.66000000E-05  2.66000000E-05  2.66000000E-05  2.66000000E-05  2.66000000E-05  2.66000000E-05  2.66000000E-05  2.66000000E-05  2.66000000E-05  2.66000000E-05  2.66000000E-05  2.66000000E-05  2.66000000E-05  2.66000000E-05  2.66000000E-05  2.66000000E-05  2.66000000E-05  2.66000000E-05  2.66000000E-05  2.66000000E-05  2.66000000E-05  2.66000000E-05  2.66000000E-05  2.66000000E-05  2.66000000E-05  2.66000000E-05  2.66000000E-05  2.66000000E-05  2.66000000E-05  2.66000000E-05  2.66000000E-05  2.66000000E-05  2.66000000E-05  2.66000000E-05  2.66000000E-05  2.66000000E-05  2.66000000E-05  2.66000000E-05  2.66000000E-05  2.66000000E-05  2.66000000E-05  2.66000000E-05  2.66000000E-05  2.66000000E-05  2.66000000E-05  2.66000000E-05  2.66000000E-05  2.66000000E-05  2.66000000E-05  2.66000000E-05  2.66000000E-05  2.66000000E-05  2.66000000E-05  2.66000000E-05  2.66000000E-05  2.66000000E-05  2.66000000E-05  2.66000000E-05  2.66000000E-05  2.66000000E-05  2.66000000E-05  2.66000000E-05  2.66000000E-05  2.66000000E-05  2.66000000E-05  2.66000000E-05  2.66000000E-05  2.66000000E-05  2.66000000E-05  2.66000000E-05  2.66000000E-05  2.66000000E-05  2.66000000E-05  2.66000000E-05  2.66000000E-05  2.66000000E-05  2.66000000E-05  2.66000000E-05  2.66000000E-05  2.66000000E-05  2.66000000E-05  2.66000000E-05  2.66000000E-05  2.66000000E-05  2.66000000E-05  2.66000000E-05  2.66000000E-05  2.66000000E-05  2.66000000E-05  2.66000000E-05  2.66000000E-05  2.66000000E-05  2.66000000E-05  2.66000000E-05  2.66000000E-05  2.66000000E-05  2.66000000E-05  2.66000000E-05  2.66000000E-05  2.66000000E-05  2.66000000E-05  2.66000000E-05  2.66000000E-05  2.66000000E-05  2.66000000E-05  2.66000000E-05  2.66000000E-05  2.66000000E-05  2.66000000E-05  2.66000000E-05  2.66000000E-05  2.66000000E-05  2.66000000E-05  2.66000000E-05  2.66000000E-05  2.66000000E-05  2.66000000E-05  2.66000000E-05  2.66000000E-05  2.66000000E-05  2.66000000E-05  2.66000000E-05  2.66000000E-05  2.66000000E-05  2.66000000E-05  2.66000000E-05  2.66000000E-05
      2.66000000E-05  2.66000000E-05  2.66000000E-05  2.66000000E-05  2.66000000E-05  2.66000000E-05  2.66000000E-05  2.66000000E-05  2.66000000E-05  2.66000000E-05  2.66000000E-05  2.66000000E-05  2.66000000E-05  2.66000000E-05  2.66000000E-05  2.66000000E-05  2.66000000E-05  2.66000000E-05  2.66000000E-05  2.66000000E-05  2.66000000E-05  2.66000000E-05  2.66000000E-05  2.66000000E-05  2.66000000E-05  2.66000000E-05  2.66000000E-05  2.66000000E-05  2.66000000E-05  2.66000000E-05  2.66000000E-05  2.66000000E-05  2.66000000E-05  2.66000000E-05  2.66000000E-05  2.66000000E-05  2.66000000E-05  2.66000000E-05  2.66000000E-05  2.66000000E-05  2.66000000E-05  2.66000000E-05  2.66000000E-05  2.66000000E-05  2.66000000E-05  2.66000000E-05  2.66000000E-05  2.66000000E-05  2.66000000E-05  2.66000000E-05  2.66000000E-05  2.66000000E-05  2.66000000E-05  2.66000000E-05  2.66000000E-05  2.66000000E-05  2.66000000E-05  2.66000000E-05  2.66000000E-05  2.66000000E-05  2.66000000E-05  2.66000000E-05  2.66000000E-05  2.66000000E-05  2.66000000E-05  2.66000000E-05  2.66000000E-05  2.66000000E-05  2.66000000E-05  2.66000000E-05  2.66000000E-05  2.66000000E-05  2.66000000E-05  2.66000000E-05  2.66000000E-05  2.66000000E-05  2.66000000E-05  2.66000000E-05  2.66000000E-05  2.66000000E-05  2.66000000E-05  2.66000000E-05  2.66000000E-05  2.66000000E-05  2.66000000E-05  2.66000000E-05  2.66000000E-05  2.66000000E-05  2.66000000E-05  2.66000000E-05  2.66000000E-05  2.66000000E-05  2.66000000E-05  2.66000000E-05  2.66000000E-05  2.66000000E-05  2.66000000E-05  2.66000000E-05  2.66000000E-05  2.66000000E-05  2.66000000E-05  2.66000000E-05  2.66000000E-05  2.66000000E-05  2.66000000E-05  2.66000000E-05  2.66000000E-05  2.66000000E-05  2.66000000E-05  2.66000000E-05  2.66000000E-05  2.66000000E-05  2.66000000E-05  2.66000000E-05  2.66000000E-05  2.66000000E-05  2.66000000E-05  2.66000000E-05  2.66000000E-05  2.66000000E-05  2.66000000E-05  2.66000000E-05  2.66000000E-05  2.66000000E-05  2.66000000E-05  2.66000000E-05  2.66000000E-05  2.66000000E-05
      2.66000000E-05  2.66000000E-05  2.66000000E-05  2.66000000E-05  2.66000000E-05  2.66000000E-05  2.66000000E-05  2.66000000E-05  2.66000000E-05  2.66000000E-05  2.66000000E-05  2.66000000E-05  2.66000000E-05  2.66000000E-05  2.66000000E-05  2.66000000E-05  2.66000000E-05  2.66000000E-05  2.66000000E-05  2.66000000E-05  2.66000000E-05  2.66000000E-05  2.66000000E-05  2.66000000E-05  2.66000000E-05  2.66000000E-05  2.66000000E-05  2.66000000E-05  2.66000000E-05  2.66000000E-05  2.66000000E-05  2.66000000E-05  2.66000000E-05  2.66000000E-05  2.66000000E-05  2.66000000E-05  2.66000000E-05  2.66000000E-05  2.66000000E-05  2.66000000E-05  2.66000000E-05  2.66000000E-05  2.66000000E-05  2.66000000E-05  2.66000000E-05  2.66000000E-05  2.66000000E-05  2.66000000E-05  2.66000000E-05  2.66000000E-05  2.66000000E-05  2.66000000E-05  2.66000000E-05  2.66000000E-05  2.66000000E-05  2.66000000E-05  2.66000000E-05  2.66000000E-05  2.66000000E-05  2.66000000E-05  2.66000000E-05  2.66000000E-05  2.66000000E-05  2.66000000E-05  2.66000000E-05  2.66000000E-05  2.66000000E-05  2.66000000E-05  2.66000000E-05  2.66000000E-05  2.66000000E-05  2.66000000E-05  2.66000000E-05  2.66000000E-05  2.66000000E-05  2.66000000E-05  2.66000000E-05  2.66000000E-05  2.66000000E-05  2.66000000E-05  2.66000000E-05  2.66000000E-05  2.66000000E-05  2.66000000E-05  2.66000000E-05  2.66000000E-05  2.66000000E-05  2.66000000E-05  2.66000000E-05  2.66000000E-05  2.66000000E-05  2.66000000E-05  2.66000000E-05  2.66000000E-05  2.66000000E-05  2.66000000E-05  2.66000000E-05  2.66000000E-05  2.66000000E-05  2.66000000E-05  2.66000000E-05  2.66000000E-05  2.66000000E-05  2.66000000E-05  2.66000000E-05  2.66000000E-05  2.66000000E-05  2.66000000E-05  2.66000000E-05  2.66000000E-05  2.66000000E-05  2.66000000E-05  2.66000000E-05  2.66000000E-05  2.66000000E-05  2.66000000E-05  2.66000000E-05  2.66000000E-05  2.66000000E-05  2.66000000E-05  2.66000000E-05  2.66000000E-05  2.66000000E-05  2.66000000E-05  2.66000000E-05  2.66000000E-05  2.66000000E-05  2.66000000E-05
      2.66000000E-05  2.66000000E-05  2.66000000E-05  2.66000000E-05  2.66000000E-05  2.66000000E-05  2.66000000E-05  2.66000000E-05  2.66000000E-05  2.66000000E-05  2.66000000E-05  2.66000000E-05  2.66000000E-05  2.66000000E-05  2.66000000E-05  2.66000000E-05  2.66000000E-05  2.66000000E-05  2.66000000E-05  2.66000000E-05  2.66000000E-05  2.66000000E-05  2.66000000E-05  2.66000000E-05  2.66000000E-05  2.66000000E-05  2.66000000E-05  2.66000000E-05  2.66000000E-05  2.66000000E-05  2.66000000E-05  2.66000000E-05  2.66000000E-05  2.66000000E-05  2.66000000E-05  2.66000000E-05  2.66000000E-05  2.66000000E-05  2.66000000E-05  2.66000000E-05  2.66000000E-05  2.66000000E-05  2.66000000E-05  2.66000000E-05  2.66000000E-05  2.66000000E-05  2.66000000E-05  2.66000000E-05  2.66000000E-05  2.66000000E-05  2.66000000E-05  2.66000000E-05  2.66000000E-05  2.66000000E-05  2.66000000E-05  2.66000000E-05  2.66000000E-05  2.66000000E-05  2.66000000E-05  2.66000000E-05  2.66000000E-05  2.66000000E-05  2.66000000E-05  2.66000000E-05  2.66000000E-05  2.66000000E-05  2.66000000E-05  2.66000000E-05  2.66000000E-05  2.66000000E-05  2.66000000E-05  2.66000000E-05  2.66000000E-05  2.66000000E-05  2.66000000E-05  2.66000000E-05  2.66000000E-05  2.66000000E-05  2.66000000E-05  2.66000000E-05  2.66000000E-05  2.66000000E-05  2.66000000E-05  2.66000000E-05  2.66000000E-05  2.66000000E-05  2.66000000E-05  2.66000000E-05  2.66000000E-05  2.66000000E-05  2.66000000E-05  2.66000000E-05  2.66000000E-05  2.66000000E-05  2.66000000E-05  2.66000000E-05  2.66000000E-05  2.66000000E-05  2.66000000E-05  2.66000000E-05  2.66000000E-05  2.66000000E-05  2.66000000E-05  2.66000000E-05  2.66000000E-05  2.66000000E-05  2.66000000E-05  2.66000000E-05  2.66000000E-05  2.66000000E-05  2.66000000E-05  2.66000000E-05  2.66000000E-05  2.66000000E-05  2.66000000E-05  2.66000000E-05  2.66000000E-05  2.66000000E-05  2.66000000E-05  2.66000000E-05  2.66000000E-05  2.66000000E-05  2.66000000E-05  2.66000000E-05  2.66000000E-05  2.66000000E-05  2.66000000E-05  2.66000000E-05
      2.66000000E-05  2.66000000E-05       0.00970000       0.00970000       0.00970000       0.00970000       0.00970000       0.00970000       0.00970000       0.00970000       0.00970000       0.00970000       0.00970000       0.00970000       0.00970000       0.00970000       0.00970000       0.00970000       0.00970000       0.00970000  2.66000000E-05  2.66000000E-05  2.66000000E-05  2.66000000E-05  2.66000000E-05  2.66000000E-05  2.66000000E-05  2.66000000E-05  2.66000000E-05  2.66000000E-05  2.66000000E-05  2.66000000E-05  2.66000000E-05  2.66000000E-05  2.66000000E-05  2.66000000E-05  2.66000000E-05  2.66000000E-05  2.66000000E-05  2.66000000E-05  2.66000000E-05  2.66000000E-05  2.66000000E-05  2.66000000E-05  2.66000000E-05  2.66000000E-05  2.66000000E-05  2.66000000E-05  2.66000000E-05  2.66000000E-05  2.66000000E-05  2.66000000E-05  2.66000000E-05  2.66000000E-05  2.66000000E-05  2.66000000E-05  2.66000000E-05  2.66000000E-05  2.66000000E-05  2.66000000E-05  2.66000000E-05  2.66000000E-05  2.66000000E-05  2.66000000E-05  2.66000000E-05  2.66000000E-05  2.66000000E-05  2.66000000E-05  2.66000000E-05  2.66000000E-05  2.66000000E-05  2.66000000E-05  2.66000000E-05  2.66000000E-05  2.66000000E-05  2.66000000E-05  2.66000000E-05  2.66000000E-05  2.66000000E-05  2.66000000E-05  2.66000000E-05  2.66000000E-05  2.66000000E-05  2.66000000E-05  2.66000000E-05  2.66000000E-05  2.66000000E-05  2.66000000E-05  2.66000000E-05  2.66000000E-05  2.66000000E-05  2.66000000E-05  2.66000000E-05  2.66000000E-05  2.66000000E-05  2.66000000E-05  2.66000000E-05  2.66000000E-05  2.66000000E-05  2.66000000E-05  2.66000000E-05  2.66000000E-05  2.66000000E-05  2.66000000E-05  2.66000000E-05  2.66000000E-05  2.66000000E-05  2.66000000E-05  2.66000000E-05  2.66000000E-05  2.66000000E-05  2.66000000E-05  2.66000000E-05  2.66000000E-05  2.66000000E-05  2.66000000E-05  2.66000000E-05  2.66000000E-05  2.66000000E-05  2.66000000E-05  2.66000000E-05  2.66000000E-05  2.66000000E-05  2.66000000E-05  2.66000000E-05  2.66000000E-05  2.66000000E-05  2.66000000E-05
      2.66000000E-05  2.66000000E-05       0.00970000       0.00970000       0.00970000       0.00970000       0.00970000       0.00970000       0.00970000       0.00970000       0.00970000       0.00970000       0.00970000       0.00970000       0.00970000       0.00970000       0.00970000       0.00970000       0.00970000       0.00970000       0.00970000       0.00970000  2.66000000E-05  2.66000000E-05  2.66000000E-05  2.66000000E-05  2.66000000E-05  2.66000000E-05  2.66000000E-05  2.66000000E-05  2.66000000E-05  2.66000000E-05  2.66000000E-05  2.66000000E-05  2.66000000E-05  2.66000000E-05  2.66000000E-05  2.66000000E-05  2.66000000E-05  2.66000000E-05  2.66000000E-05  2.66000000E-05  2.66000000E-05  2.66000000E-05  2.66000000E-05  2.66000000E-05  2.66000000E-05  2.66000000E-05  2.66000000E-05  2.66000000E-05  2.66000000E-05  2.66000000E-05  2.66000000E-05  2.66000000E-05  2.66000000E-05  2.66000000E-05  2.66000000E-05  2.66000000E-05  2.66000000E-05  2.66000000E-05  2.66000000E-05  2.66000000E-05  2.66000000E-05  2.66000000E-05  2.66000000E-05  2.66000000E-05  2.66000000E-05  2.66000000E-05  2.66000000E-05  2.66000000E-05  2.66000000E-05  2.66000000E-05  2.66000000E-05  2.66000000E-05  2.66000000E-05  2.66000000E-05  2.66000000E-05  2.66000000E-05  2.66000000E-05  2.66000000E-05  2.66000000E-05  2.66000000E-05  2.66000000E-05  2.66000000E-05  2.66000000E-05  2.66000000E-05  2.66000000E-05  2.66000000E-05  2.66000000E-05  2.66000000E-05  2.66000000E-05  2.66000000E-05  2.66000000E-05  2.66000000E-05  2.66000000E-05  2.66000000E-05  2.66000000E-05  2.66000000E-05  2.66000000E-05  2.66000000E-05  2.66000000E-05  2.66000000E-05  2.66000000E-05  2.66000000E-05  2.66000000E-05  2.66000000E-05  2.66000000E-05  2.66000000E-05  2.66000000E-05  2.66000000E-05  2.66000000E-05  2.66000000E-05  2.66000000E-05  2.66000000E-05  2.66000000E-05  2.66000000E-05  2.66000000E-05  2.66000000E-05  2.66000000E-05  2.66000000E-05  2.66000000E-05  2.66000000E-05  2.66000000E-05  2.66000000E-05  2.66000000E-05  2.66000000E-05  2.66000000E-05  2.66000000E-05
      2.66000000E-05  2.66000000E-05       0.00970000       0.00970000       0.00970000       0.00970000       0.00970000       0.00970000       0.00970000       0.00970000       0.00970000       0.00970000       0.00970000       0.00970000       0.00970000       0.00970000       0.00970000       0.00970000       0.00970000       0.00970000       0.00970000       0.00970000       0.00970000  2.66000000E-05  2.66000000E-05  2.66000000E-05  2.66000000E-05  2.66000000E-05  2.66000000E-05  2.66000000E-05  2.66000000E-05  2.66000000E-05  2.66000000E-05  2.66000000E-05  2.66000000E-05  2.66000000E-05  2.66000000E-05  2.66000000E-05  2.66000000E-05  2.66000000E-05  2.66000000E-05  2.66000000E-05  2.66000000E-05  2.66000000E-05  2.66000000E-05  2.66000000E-05  2.66000000E-05  2.66000000E-05  2.66000000E-05  2.66000000E-05  2.66000000E-05  2.66000000E-05  2.66000000E-05  2.66000000E-05  2.66000000E-05  2.66000000E-05  2.66000000E-05  2.66000000E-05  2.66000000E-05  2.66000000E-05  2.66000000E-05  2.66000000E-05  2.66000000E-05  2.66000000E-05  2.66000000E-05  2.66000000E-05  2.66000000E-05  2.66000000E-05  2.66000000E-05  2.66000000E-05  2.66000000E-05  2.66000000E-05  2.66000000E-05  2.66000000E-05  2.66000000E-05  2.66000000E-05  2.66000000E-05  2.66000000E-05  2.66000000E-05  2.66000000E-05  2.66000000E-05  2.66000000E-05  2.66000000E-05  2.66000000E-05  2.66000000E-05  2.66000000E-05  2.66000000E-05  2.66000000E-05  2.66000000E-05  2.66000000E-05  2.66000000E-05  2.66000000E-05  2.66000000E-05  2.66000000E-05  2.66000000E-05  2.66000000E-05  2.66000000E-05  2.66000000E-05  2.66000000E-05  2.66000000E-05  2.66000000E-05  2.66000000E-05  2.66000000E-05  2.66000000E-05  2.66000000E-05  2.66000000E-05  2.66000000E-05  2.66000000E-05  2.66000000E-05  2.66000000E-05  2.66000000E-05  2.66000000E-05  2.66000000E-05  2.66000000E-05  2.66000000E-05  2.66000000E-05  2.66000000E-05  2.66000000E-05  2.66000000E-05  2.66000000E-05  2.66000000E-05  2.66000000E-05  2.66000000E-05  2.66000000E-05  2.66000000E-05  2.66000000E-05  2.66000000E-05  2.66000000E-05
      2.66000000E-05  2.66000000E-05       0.00970000       0.00970000       0.00970000       0.00970000       0.00970000       0.00970000       0.00970000       0.00970000       0.00970000       0.00970000       0.00970000       0.00970000       0.00970000       0.00970000       0.00970000       0.00970000       0.00970000       0.00970000       0.00970000       0.00970000       0.00970000       0.00970000       0.00970000  2.66000000E-05  2.66000000E-05  2.66000000E-05  2.66000000E-05  2.66000000E-05  2.66000000E-05  2.66000000E-05  2.66000000E-05  2.66000000E-05  2.66000000E-05  2.66000000E-05  2.66000000E-05  2.66000000E-05  2.66000000E-05  2.66000000E-05  2.66000000E-05  2.66000000E-05  2.66000000E-05  2.66000000E-05  2.66000000E-05  2.66000000E-05  2.66000000E-05  2.66000000E-05  2.66000000E-05  2.66000000E-05  2.66000000E-05  2.66000000E-05  2.66000000E-05  2.66000000E-05  2.66000000E-05  2.66000000E-05  2.66000000E-05  2.66000000E-05  2.66000000E-05  2.66000000E-05  2.66000000E-05  2.66000000E-05  2.66000000E-05  2.66000000E-05  2.66000000E-05  2.66000000E-05  2.66000000E-05  2.66000000E-05  2.66000000E-05  2.66000000E-05  2.66000000E-05  2.66000000E-05  2.66000000E-05  2.66000000E-05  2.66000000E-05  2.66000000E-05  2.66000000E-05  2.66000000E-05  2.66000000E-05  2.66000000E-05  2.66000000E-05  2.66000000E-05  2.66000000E-05  2.66000000E-05  2.66000000E-05  2.66000000E-05  2.66000000E-05  2.66000000E-05  2.66000000E-05  2.66000000E-05  2.66000000E-05  2.66000000E-05  2.66000000E-05  2.66000000E-05  2.66000000E-05  2.66000000E-05  2.66000000E-05  2.66000000E-05  2.66000000E-05  2.66000000E-05  2.66000000E-05  2.66000000E-05  2.66000000E-05  2.66000000E-05  2.66000000E-05  2.66000000E-05  2.66000000E-05  2.66000000E-05  2.66000000E-05  2.66000000E-05  2.66000000E-05  2.66000000E-05  2.66000000E-05  2.66000000E-05  2.66000000E-05  2.66000000E-05  2.66000000E-05  2.66000000E-05  2.66000000E-05  2.66000000E-05  2.66000000E-05  2.66000000E-05  2.66000000E-05  2.66000000E-05  2.66000000E-05  2.66000000E-05  2.66000000E-05  2.66000000E-05
      2.66000000E-05  2.66000000E-05       0.00970000       0.00970000       0.00970000       0.00970000       0.00970000       0.00970000       0.00970000       0.00970000       0.00970000       0.00970000       0.00970000       0.00970000       0.00970000       0.00970000       0.00970000       0.00970000       0.00970000       0.00970000       0.00970000       0.00970000       0.00970000       0.00970000       0.00970000       0.00970000       0.00970000  2.66000000E-05  2.66000000E-05  2.66000000E-05  2.66000000E-05  2.66000000E-05  2.66000000E-05  2.66000000E-05  2.66000000E-05  2.66000000E-05  2.66000000E-05  2.66000000E-05  2.66000000E-05  2.66000000E-05  2.66000000E-05  2.66000000E-05  2.66000000E-05  2.66000000E-05  2.66000000E-05  2.66000000E-05  2.66000000E-05  2.66000000E-05  2.66000000E-05  2.66000000E-05  2.66000000E-05  2.66000000E-05  2.66000000E-05  2.66000000E-05  2.66000000E-05  2.66000000E-05  2.66000000E-05  2.66000000E-05  2.66000000E-05  2.66000000E-05  2.66000000E-05  2.66000000E-05  2.66000000E-05  2.66000000E-05  2.66000000E-05  2.66000000E-05  2.66000000E-05  2.66000000E-05  2.66000000E-05  2.66000000E-05  2.66000000E-05  2.66000000E-05  2.66000000E-05  2.66000000E-05  2.66000000E-05  2.66000000E-05  2.66000000E-05  2.66000000E-05  2.66000000E-05  2.66000000E-05  2.66000000E-05  2.66000000E-05  2.66000000E-05  2.66000000E-05  2.66000000E-05  2.66000000E-05  2.66000000E-05  2.66000000E-05  2.66000000E-05  2.66000000E-05  2.66000000E-05  2.66000000E-05  2.66000000E-05  2.66000000E-05  2.66000000E-05  2.66000000E-05  2.66000000E-05  2.66000000E-05  2.66000000E-05  2.66000000E-05  2.66000000E-05  2.66000000E-05  2.66000000E-05  2.66000000E-05  2.66000000E-05  2.66000000E-05  2.66000000E-05  2.66000000E-05  2.66000000E-05  2.66000000E-05  2.66000000E-05  2.66000000E-05  2.66000000E-05  2.66000000E-05  2.66000000E-05  2.66000000E-05  2.66000000E-05  2.66000000E-05  2.66000000E-05  2.66000000E-05  2.66000000E-05  2.66000000E-05  2.66000000E-05  2.66000000E-05  2.66000000E-05  2.66000000E-05  2.66000000E-05  2.66000000E-05
      2.66000000E-05  2.66000000E-05       0.00970000       0.00970000       0.00970000       0.00970000       0.00970000       0.00970000       0.00970000       0.00970000       0.00970000       0.00970000       0.00970000       0.00970000       0.00970000       0.00970000       0.00970000       0.00970000       0.00970000       0.00970000       0.00970000       0.00970000       0.00970000       0.00970000       0.00970000       0.00970000       0.00970000       0.00970000  2.66000000E-05  2.66000000E-05  2.66000000E-05  2.66000000E-05  2.66000000E-05  2.66000000E-05  2.66000000E-05  2.66000000E-05  2.66000000E-05  2.66000000E-05  2.66000000E-05  2.66000000E-05  2.66000000E-05  2.66000000E-05  2.66000000E-05  2.66000000E-05  2.66000000E-05  2.66000000E-05  2.66000000E-05  2.66000000E-05  2.66000000E-05  2.66000000E-05  2.66000000E-05  2.66000000E-05  2.66000000E-05  2.66000000E-05  2.66000000E-05  2.66000000E-05  2.66000000E-05  2.66000000E-05  2.66000000E-05  2.66000000E-05  2.66000000E-05  2.66000000E-05  2.66000000E-05  2.66000000E-05  2.66000000E-05  2.66000000E-05  2.66000000E-05  2.66000000E-05  2.66000000E-05  2.66000000E-05  2.66000000E-05  2.66000000E-05  2.66000000E-05  2.66000000E-05  2.66000000E-05  2.66000000E-05  2.66000000E-05  2.66000000E-05  2.66000000E-05  2.66000000E-05  2.66000000E-05  2.66000000E-05  2.66000000E-05  2.66000000E-05  2.66000000E-05  2.66000000E-05  2.66000000E-05  2.66000000E-05  2.66000000E-05  2.66000000E-05  2.66000000E-05  2.66000000E-05  2.66000000E-05  2.66000000E-05  2.66000000E-05  2.66000000E-05  2.66000000E-05  2.66000000E-05  2.66000000E-05  2.66000000E-05  2.66000000E-05  2.66000000E-05  2.66000000E-05  2.66000000E-05  2.66000000E-05  2.66000000E-05  2.66000000E-05  2.66000000E-05  2.66000000E-05  2.66000000E-05  2.66000000E-05  2.66000000E-05  2.66000000E-05  2.66000000E-05  2.66000000E-05  2.66000000E-05  2.66000000E-05  2.66000000E-05  2.66000000E-05  2.66000000E-05  2.66000000E-05  2.66000000E-05  2.66000000E-05  2.66000000E-05  2.66000000E-05  2.66000000E-05  2.66000000E-05  2.66000000E-05
      2.66000000E-05  2.66000000E-05       0.00970000       0.00970000       0.00970000       0.00970000       0.00970000       0.00970000       0.00970000       0.00970000       0.00970000       0.00970000       0.00970000       0.00970000       0.00970000       0.00970000       0.00970000       0.00970000       0.00970000       0.00970000       0.00970000       0.00970000       0.00970000       0.00970000       0.00970000       0.00970000       0.00970000       0.00970000       0.00970000       0.00970000  2.66000000E-05  2.66000000E-05  2.66000000E-05  2.66000000E-05  2.66000000E-05  2.66000000E-05  2.66000000E-05  2.66000000E-05  2.66000000E-05  2.66000000E-05  2.66000000E-05  2.66000000E-05  2.66000000E-05  2.66000000E-05  2.66000000E-05  2.66000000E-05  2.66000000E-05  2.66000000E-05  2.66000000E-05  2.66000000E-05  2.66000000E-05  2.66000000E-05  2.66000000E-05  2.66000000E-05  2.66000000E-05  2.66000000E-05  2.66000000E-05  2.66000000E-05  2.66000000E-05  2.66000000E-05  2.66000000E-05  2.66000000E-05  2.66000000E-05  2.66000000E-05  2.66000000E-05  2.66000000E-05  2.66000000E-05  2.66000000E-05  2.66000000E-05  2.66000000E-05  2.66000000E-05  2.66000000E-05  2.66000000E-05  2.66000000E-05  2.66000000E-05  2.66000000E-05  2.66000000E-05  2.66000000E-05  2.66000000E-05  2.66000000E-05  2.66000000E-05  2.66000000E-05  2.66000000E-05  2.66000000E-05  2.66000000E-05  2.66000000E-05  2.66000000E-05  2.66000000E-05  2.66000000E-05  2.66000000E-05  2.66000000E-05  2.66000000E-05  2.66000000E-05  2.66000000E-05  2.66000000E-05  2.66000000E-05  2.66000000E-05  2.66000000E-05  2.66000000E-05  2.66000000E-05  2.66000000E-05  2.66000000E-05  2.66000000E-05  2.66000000E-05  2.66000000E-05  2.66000000E-05  2.66000000E-05  2.66000000E-05  2.66000000E-05  2.66000000E-05  2.66000000E-05  2.66000000E-05  2.66000000E-05  2.66000000E-05  2.66000000E-05  2.66000000E-05  2.66000000E-05  2.66000000E-05  2.66000000E-05  2.66000000E-05  2.66000000E-05  2.66000000E-05  2.66000000E-05  2.66000000E-05  2.66000000E-05  2.66000000E-05  2.66000000E-05  2.66000000E-05