# File generated by Flopy version 3.9.5 on 11/25/2025 at 16:20:49.
BEGIN OPTIONS
  AUXILIARY  iface
  BOUNDNAMES
  PRINT_INPUT
  SAVE_FLOWS
  AUTO_FLOW_REDUCE  1.00000000E-06
END OPTIONS

BEGIN DIMENSIONS
  MAXBOUND  76
END DIMENSIONS

BEGIN PERIOD  1
  1 2 1 3.12564937E-11 0 'slope_recharge'
  1 4 2 4.58510900E-11 0 'slope_recharge'
  1 5 2 5.32985541E-11 0 'slope_recharge'
  1 6 3 1.29578549E-11 0 'slope_recharge'
  1 7 3 5.32985541E-11 0 'slope_recharge'
  1 8 3 5.05305415E-11 0 'slope_recharge'
  1 13 4 1.99336698E-11 0 'slope_recharge'
  1 14 4 4.99663606E-11 0 'slope_recharge'
  1 15 4 4.99663606E-11 0 'slope_recharge'
  1 16 4 4.99663606E-11 0 'slope_recharge'
  1 17 4 4.99663606E-11 0 'slope_recharge'
  1 18 4 4.99663606E-11 0 'slope_recharge'
  1 19 4 4.99663606E-11 0 'slope_recharge'
  1 25 5 2.99269419E-11 0 'slope_recharge'
  1 26 5 5.00255671E-11 0 'slope_recharge'
  1 27 5 5.05553092E-11 0 'slope_recharge'
  1 28 5 5.05553092E-11 0 'slope_recharge'
  1 29 5 5.05553092E-11 0 'slope_recharge'
  1 30 5 5.05553092E-11 0 'slope_recharge'
  1 31 6 7.44744043E-12 0 'slope_recharge'
  1 32 6 5.05553092E-11 0 'slope_recharge'
  1 33 6 5.05553092E-11 0 'slope_recharge'
  1 34 6 5.05553092E-11 0 'slope_recharge'
  1 35 6 5.05553092E-11 0 'slope_recharge'
  1 37 7 2.39444361E-11 0 'slope_recharge'
  1 38 7 5.05553092E-11 0 'slope_recharge'
  1 39 7 5.05553092E-11 0 'slope_recharge'
  1 40 7 5.05553092E-11 0 'slope_recharge'
  1 43 8 3.37821894E-11 0 'slope_recharge'
  1 44 8 3.65800562E-11 0 'slope_recharge'
  1 45 8 3.04833810E-11 0 'slope_recharge'
  1 46 8 2.54028177E-11 0 'slope_recharge'
  1 47 8 2.11690150E-11 0 'slope_recharge'
  1 60 9 6.38311813E-12 0 'slope_recharge'
  1 61 9 1.01110618E-11 0 'slope_recharge'
  1 62 9 1.01110618E-11 0 'slope_recharge'
  1 63 9 1.01110618E-11 0 'slope_recharge'
  1 64 9 1.01110618E-11 0 'slope_recharge'
  1 65 9 1.01110618E-11 0 'slope_recharge'
  1 66 9 1.01110618E-11 0 'slope_recharge'
  1 67 9 1.01110618E-11 0 'slope_recharge'
  1 68 9 1.01110618E-11 0 'slope_recharge'
  1 69 9 1.01110618E-11 0 'slope_recharge'
  1 70 9 1.01110618E-11 0 'slope_recharge'
  1 71 9 1.01110618E-11 0 'slope_recharge'
  1 82 10 2.95393559E-11 0 'slope_recharge'
  1 83 10 4.34632799E-11 0 'slope_recharge'
  1 84 10 4.98117022E-11 0 'slope_recharge'
  1 85 10 4.98117022E-11 0 'slope_recharge'
  1 86 10 4.98117022E-11 0 'slope_recharge'
  1 87 10 4.98117022E-11 0 'slope_recharge'
  1 88 10 4.98117022E-11 0 'slope_recharge'
  1 89 10 4.98117022E-11 0 'slope_recharge'
  1 90 10 4.98117022E-11 0 'slope_recharge'
  1 91 10 4.98117022E-11 0 'slope_recharge'
  1 92 10 4.98117022E-11 0 'slope_recharge'
  1 93 10 5.00398240E-11 0 'slope_recharge'
  1 94 10 5.05302860E-11 0 'slope_recharge'
  1 95 10 5.05302860E-11 0 'slope_recharge'
  1 96 10 2.01750959E-11 0 'slope_recharge'
  1 99 9 5.05302860E-11 0 'slope_recharge'
  1 100 9 5.05302860E-11 0 'slope_recharge'
  1 101 9 4.53558565E-11 0 'slope_recharge'
  1 103 8 5.28788599E-11 0 'slope_recharge'
  1 104 8 3.59627899E-11 0 'slope_recharge'
  1 107 7 2.51158443E-11 0 'slope_recharge'
  1 110 6 1.42688987E-11 0 'slope_recharge'
  1 113 5 3.42195308E-12 0 'slope_recharge'
  1 116 4 3.85611547E-11 0 'slope_recharge'
  1 118 3 5.15626757E-11 0 'slope_recharge'
  1 119 3 5.15626757E-11 0 'slope_recharge'
  1 120 3 4.53007504E-11 0 'slope_recharge'
  1 125 2 5.00249572E-11 0 'slope_recharge'
  1 126 2 5.00249572E-11 0 'slope_recharge'
  1 127 2 5.00249572E-11 0 'slope_recharge'
  1 64 61 0.00000000E+00 0 'pumping_well'
END PERIOD  1

BEGIN PERIOD  2
  1 2 1 3.12564937E-11 0 'slope_recharge'
  1 4 2 4.58510900E-11 0 'slope_recharge'
  1 5 2 5.32985541E-11 0 'slope_recharge'
  1 6 3 1.29578549E-11 0 'slope_recharge'
  1 7 3 5.32985541E-11 0 'slope_recharge'
  1 8 3 5.05305415E-11 0 'slope_recharge'
  1 13 4 1.99336698E-11 0 'slope_recharge'
  1 14 4 4.99663606E-11 0 'slope_recharge'
  1 15 4 4.99663606E-11 0 'slope_recharge'
  1 16 4 4.99663606E-11 0 'slope_recharge'
  1 17 4 4.99663606E-11 0 'slope_recharge'
  1 18 4 4.99663606E-11 0 'slope_recharge'
  1 19 4 4.99663606E-11 0 'slope_recharge'
  1 25 5 2.99269419E-11 0 'slope_recharge'
  1 26 5 5.00255671E-11 0 'slope_recharge'
  1 27 5 5.05553092E-11 0 'slope_recharge'
  1 28 5 5.05553092E-11 0 'slope_recharge'
  1 29 5 5.05553092E-11 0 'slope_recharge'
  1 30 5 5.05553092E-11 0 'slope_recharge'
  1 31 6 7.44744043E-12 0 'slope_recharge'
  1 32 6 5.05553092E-11 0 'slope_recharge'
  1 33 6 5.05553092E-11 0 'slope_recharge'
  1 34 6 5.05553092E-11 0 'slope_recharge'
  1 35 6 5.05553092E-11 0 'slope_recharge'
  1 37 7 2.39444361E-11 0 'slope_recharge'
  1 38 7 5.05553092E-11 0 'slope_recharge'
  1 39 7 5.05553092E-11 0 'slope_recharge'
  1 40 7 5.05553092E-11 0 'slope_recharge'
  1 43 8 3.37821894E-11 0 'slope_recharge'
  1 44 8 3.65800562E-11 0 'slope_recharge'
  1 45 8 3.04833810E-11 0 'slope_recharge'
  1 46 8 2.54028177E-11 0 'slope_recharge'
  1 47 8 2.11690150E-11 0 'slope_recharge'
  1 60 9 6.38311813E-12 0 'slope_recharge'
  1 61 9 1.01110618E-11 0 'slope_recharge'
  1 62 9 1.01110618E-11 0 'slope_recharge'
  1 63 9 1.01110618E-11 0 'slope_recharge'
  1 64 9 1.01110618E-11 0 'slope_recharge'
  1 65 9 1.01110618E-11 0 'slope_recharge'
  1 66 9 1.01110618E-11 0 'slope_recharge'
  1 67 9 1.01110618E-11 0 'slope_recharge'
  1 68 9 1.01110618E-11 0 'slope_recharge'
  1 69 9 1.01110618E-11 0 'slope_recharge'
  1 70 9 1.01110618E-11 0 'slope_recharge'
  1 71 9 1.01110618E-11 0 'slope_recharge'
  1 82 10 2.95393559E-11 0 'slope_recharge'
  1 83 10 4.34632799E-11 0 'slope_recharge'
  1 84 10 4.98117022E-11 0 'slope_recharge'
  1 85 10 4.98117022E-11 0 'slope_recharge'
  1 86 10 4.98117022E-11 0 'slope_recharge'
  1 87 10 4.98117022E-11 0 'slope_recharge'
  1 88 10 4.98117022E-11 0 'slope_recharge'
  1 89 10 4.98117022E-11 0 'slope_recharge'
  1 90 10 4.98117022E-11 0 'slope_recharge'
  1 91 10 4.98117022E-11 0 'slope_recharge'
  1 92 10 4.98117022E-11 0 'slope_recharge'
  1 93 10 5.00398240E-11 0 'slope_recharge'
  1 94 10 5.05302860E-11 0 'slope_recharge'
  1 95 10 5.05302860E-11 0 'slope_recharge'
  1 96 10 2.01750959E-11 0 'slope_recharge'
  1 99 9 5.05302860E-11 0 'slope_recharge'
  1 100 9 5.05302860E-11 0 'slope_recharge'
  1 101 9 4.53558565E-11 0 'slope_recharge'
  1 103 8 5.28788599E-11 0 'slope_recharge'
  1 104 8 3.59627899E-11 0 'slope_recharge'
  1 107 7 2.51158443E-11 0 'slope_recharge'
  1 110 6 1.42688987E-11 0 'slope_recharge'
  1 113 5 3.42195308E-12 0 'slope_recharge'
  1 116 4 3.85611547E-11 0 'slope_recharge'
  1 118 3 5.15626757E-11 0 'slope_recharge'
  1 119 3 5.15626757E-11 0 'slope_recharge'
  1 120 3 4.53007504E-11 0 'slope_recharge'
  1 125 2 5.00249572E-11 0 'slope_recharge'
  1 126 2 5.00249572E-11 0 'slope_recharge'
  1 127 2 5.00249572E-11 0 'slope_recharge'
  1 64 61 -2.77800000E-02 0 'pumping_well'
END PERIOD  2

