# File generated by Flopy version 3.9.5 on 11/25/2025 at 16:20:49.
BEGIN OPTIONS
END OPTIONS

BEGIN GRIDDATA
  strt  LAYERED
    CONSTANT      37.40000000
    CONSTANT      37.40000000
END GRIDDATA

