# File generated by Flopy version 3.9.5 on 11/25/2025 at 16:20:49.
BEGIN OPTIONS
  BUDGET  FILEOUT  Transient_cali.cbc
  HEAD  FILEOUT  Transient_cali.bhd
END OPTIONS

BEGIN PERIOD  1
  SAVE  head  all
  SAVE  budget  all
  PRINT  budget  all
END PERIOD  1

BEGIN PERIOD  2
  SAVE  head  all
  SAVE  budget  all
  PRINT  budget  all
END PERIOD  2

