# File generated by Flopy version 3.9.5 on 11/25/2025 at 16:20:49.
BEGIN OPTIONS
  SAVE_FLOWS
  SAVE_SPECIFIC_DISCHARGE
  SAVE_SATURATION
END OPTIONS

BEGIN GRIDDATA
  icelltype  LAYERED
    CONSTANT  1
    CONSTANT  0
  k  LAYERED
    INTERNAL  FACTOR  1.0  IPRN  12
      9.00000000E-04  9.00000000E-04  9.00000000E-04  9.00000000E-04  9.00000000E-04  9.00000000E-04  9.00000000E-04  9.00000000E-04  9.00000000E-04  9.00000000E-04  9.00000000E-04  9.00000000E-04  9.00000000E-04  9.00000000E-04  9.00000000E-04  9.00000000E-04  9.00000000E-04  9.00000000E-04  9.00000000E-04  9.00000000E-04  9.00000000E-04  9.00000000E-04  9.00000000E-04  9.00000000E-04  9.00000000E-04  9.00000000E-04  9.00000000E-04  9.00000000E-04  9.00000000E-04  9.00000000E-04  9.00000000E-04  9.00000000E-04  9.00000000E-04  9.00000000E-04  9.00000000E-04  9.00000000E-04  9.00000000E-04  9.00000000E-04  9.00000000E-04  9.00000000E-04  9.00000000E-04  9.00000000E-04  9.00000000E-04  9.00000000E-04  9.00000000E-04  9.00000000E-04  9.00000000E-04  9.00000000E-04  9.00000000E-04  9.00000000E-04  9.00000000E-04  9.00000000E-04  9.00000000E-04  9.00000000E-04  9.00000000E-04  9.00000000E-04  9.00000000E-04  9.00000000E-04  9.00000000E-04  9.00000000E-04  9.00000000E-04  9.00000000E-04  9.00000000E-04  9.00000000E-04  9.00000000E-04  9.00000000E-04  9.00000000E-04  9.00000000E-04  9.00000000E-04  9.00000000E-04  9.00000000E-04  9.00000000E-04  9.00000000E-04  9.00000000E-04  9.00000000E-04  9.00000000E-04  9.00000000E-04  9.00000000E-04  9.00000000E-04  9.00000000E-04  9.00000000E-04  9.00000000E-04  9.00000000E-04  9.00000000E-04  9.00000000E-04  9.00000000E-04  9.00000000E-04  9.00000000E-04  9.00000000E-04  9.00000000E-04  9.00000000E-04  9.00000000E-04  9.00000000E-04  9.00000000E-04  9.00000000E-04  9.00000000E-04  9.00000000E-04  9.00000000E-04  9.00000000E-04  9.00000000E-04  9.00000000E-04  9.00000000E-04  9.00000000E-04  9.00000000E-04  9.00000000E-04  9.00000000E-04  9.00000000E-04  9.00000000E-04  9.00000000E-04  9.00000000E-04  9.00000000E-04  9.00000000E-04  9.00000000E-04  9.00000000E-04  9.00000000E-04  9.00000000E-04  9.00000000E-04  9.00000000E-04  9.00000000E-04  9.00000000E-04  9.00000000E-04  9.00000000E-04  9.00000000E-04  9.00000000E-04  9.00000000E-04  9.00000000E-04  9.00000000E-04  9.00000000E-04
      9.00000000E-04  9.00000000E-04  9.00000000E-04  9.00000000E-04  9.00000000E-04  9.00000000E-04  9.00000000E-04  9.00000000E-04  9.00000000E-04  9.00000000E-04  9.00000000E-04  9.00000000E-04  9.00000000E-04  9.00000000E-04  9.00000000E-04  9.00000000E-04  9.00000000E-04  9.00000000E-04  9.00000000E-04  9.00000000E-04  9.00000000E-04  9.00000000E-04  9.00000000E-04  9.00000000E-04  9.00000000E-04  9.00000000E-04  9.00000000E-04  9.00000000E-04  9.00000000E-04  9.00000000E-04  9.00000000E-04  9.00000000E-04  9.00000000E-04  9.00000000E-04  9.00000000E-04  9.00000000E-04  9.00000000E-04  9.00000000E-04  9.00000000E-04  9.00000000E-04  9.00000000E-04  9.00000000E-04  9.00000000E-04  9.00000000E-04  9.00000000E-04  9.00000000E-04  9.00000000E-04  9.00000000E-04  9.00000000E-04  9.00000000E-04  9.00000000E-04  9.00000000E-04  9.00000000E-04  9.00000000E-04  9.00000000E-04  9.00000000E-04  9.00000000E-04  9.00000000E-04  9.00000000E-04  9.00000000E-04  9.00000000E-04  9.00000000E-04  9.00000000E-04  9.00000000E-04  9.00000000E-04  9.00000000E-04  9.00000000E-04  9.00000000E-04  9.00000000E-04  9.00000000E-04  9.00000000E-04  9.00000000E-04  9.00000000E-04  9.00000000E-04  9.00000000E-04  9.00000000E-04  9.00000000E-04  9.00000000E-04  9.00000000E-04  9.00000000E-04  9.00000000E-04  9.00000000E-04  9.00000000E-04  9.00000000E-04  9.00000000E-04  9.00000000E-04  9.00000000E-04  9.00000000E-04  9.00000000E-04  9.00000000E-04  9.00000000E-04  9.00000000E-04  9.00000000E-04  9.00000000E-04  9.00000000E-04  9.00000000E-04  9.00000000E-04  9.00000000E-04  9.00000000E-04  9.00000000E-04  9.00000000E-04  9.00000000E-04  9.00000000E-04  9.00000000E-04  9.00000000E-04  9.00000000E-04  9.00000000E-04  9.00000000E-04  9.00000000E-04  9.00000000E-04  9.00000000E-04  9.00000000E-04  9.00000000E-04  9.00000000E-04  9.00000000E-04  9.00000000E-04  9.00000000E-04  9.00000000E-04  9.00000000E-04  9.00000000E-04  9.00000000E-04  9.00000000E-04  9.00000000E-04  9.00000000E-04  9.00000000E-04  9.00000000E-04  9.00000000E-04  9.00000000E-04
      9.00000000E-04  9.00000000E-04  9.00000000E-04  9.00000000E-04  9.00000000E-04  9.00000000E-04  9.00000000E-04  9.00000000E-04  9.00000000E-04  9.00000000E-04  9.00000000E-04  9.00000000E-04  9.00000000E-04  9.00000000E-04  9.00000000E-04  9.00000000E-04  9.00000000E-04  9.00000000E-04  9.00000000E-04  9.00000000E-04  9.00000000E-04  9.00000000E-04  9.00000000E-04  9.00000000E-04  9.00000000E-04  9.00000000E-04  9.00000000E-04  9.00000000E-04  9.00000000E-04  9.00000000E-04  9.00000000E-04  9.00000000E-04  9.00000000E-04  9.00000000E-04  9.00000000E-04  9.00000000E-04  9.00000000E-04  9.00000000E-04  9.00000000E-04  9.00000000E-04  9.00000000E-04  9.00000000E-04  9.00000000E-04  9.00000000E-04  9.00000000E-04  9.00000000E-04  9.00000000E-04  9.00000000E-04  9.00000000E-04  9.00000000E-04  9.00000000E-04  9.00000000E-04  9.00000000E-04  9.00000000E-04  9.00000000E-04  9.00000000E-04  9.00000000E-04  9.00000000E-04  9.00000000E-04  9.00000000E-04  9.00000000E-04  9.00000000E-04  9.00000000E-04  9.00000000E-04  9.00000000E-04  9.00000000E-04  9.00000000E-04  9.00000000E-04  9.00000000E-04  9.00000000E-04  9.00000000E-04  9.00000000E-04  9.00000000E-04  9.00000000E-04  9.00000000E-04  9.00000000E-04  9.00000000E-04  9.00000000E-04  9.00000000E-04  9.00000000E-04  9.00000000E-04  9.00000000E-04  9.00000000E-04  9.00000000E-04  9.00000000E-04  9.00000000E-04  9.00000000E-04  9.00000000E-04  9.00000000E-04  9.00000000E-04  9.00000000E-04  9.00000000E-04  9.00000000E-04  9.00000000E-04  9.00000000E-04  9.00000000E-04  9.00000000E-04  9.00000000E-04  9.00000000E-04  9.00000000E-04  9.00000000E-04  9.00000000E-04  9.00000000E-04  9.00000000E-04  9.00000000E-04  9.00000000E-04  9.00000000E-04  9.00000000E-04  9.00000000E-04  9.00000000E-04  9.00000000E-04  9.00000000E-04  9.00000000E-04  9.00000000E-04  9.00000000E-04  9.00000000E-04  9.00000000E-04  9.00000000E-04  9.00000000E-04  9.00000000E-04  9.00000000E-04  9.00000000E-04  9.00000000E-04  9.00000000E-04  9.00000000E-04  9.00000000E-04  9.00000000E-04  9.00000000E-04
      9.00000000E-04  9.00000000E-04  9.00000000E-04  9.00000000E-04  9.00000000E-04  9.00000000E-04  9.00000000E-04  9.00000000E-04  9.00000000E-04  9.00000000E-04  9.00000000E-04  9.00000000E-04  9.00000000E-04  9.00000000E-04  9.00000000E-04  9.00000000E-04  9.00000000E-04  9.00000000E-04  9.00000000E-04  9.00000000E-04  9.00000000E-04  9.00000000E-04  9.00000000E-04  9.00000000E-04  9.00000000E-04  9.00000000E-04  9.00000000E-04  9.00000000E-04  9.00000000E-04  9.00000000E-04  9.00000000E-04  9.00000000E-04  9.00000000E-04  9.00000000E-04  9.00000000E-04  9.00000000E-04  9.00000000E-04  9.00000000E-04  9.00000000E-04  9.00000000E-04  9.00000000E-04  9.00000000E-04  9.00000000E-04  9.00000000E-04  9.00000000E-04  9.00000000E-04  9.00000000E-04  9.00000000E-04  9.00000000E-04  9.00000000E-04  9.00000000E-04  9.00000000E-04  9.00000000E-04  9.00000000E-04  9.00000000E-04  9.00000000E-04  9.00000000E-04  9.00000000E-04  9.00000000E-04  9.00000000E-04  9.00000000E-04  9.00000000E-04  9.00000000E-04  9.00000000E-04  9.00000000E-04  9.00000000E-04  9.00000000E-04  9.00000000E-04  9.00000000E-04  9.00000000E-04  9.00000000E-04  9.00000000E-04  9.00000000E-04  9.00000000E-04  9.00000000E-04  9.00000000E-04  9.00000000E-04  9.00000000E-04  9.00000000E-04  9.00000000E-04  9.00000000E-04  9.00000000E-04  9.00000000E-04  9.00000000E-04  9.00000000E-04  9.00000000E-04  9.00000000E-04  9.00000000E-04  9.00000000E-04  9.00000000E-04  9.00000000E-04  9.00000000E-04  9.00000000E-04  9.00000000E-04  9.00000000E-04  9.00000000E-04  9.00000000E-04  9.00000000E-04  9.00000000E-04  9.00000000E-04  9.00000000E-04  9.00000000E-04  9.00000000E-04  9.00000000E-04  9.00000000E-04  9.00000000E-04  9.00000000E-04  9.00000000E-04  9.00000000E-04  9.00000000E-04  9.00000000E-04  9.00000000E-04  9.00000000E-04  9.00000000E-04  9.00000000E-04  9.00000000E-04  9.00000000E-04  9.00000000E-04  9.00000000E-04  9.00000000E-04  9.00000000E-04  9.00000000E-04  9.00000000E-04  9.00000000E-04  9.00000000E-04  9.00000000E-04  9.00000000E-04  9.00000000E-04
      9.00000000E-04  9.00000000E-04  9.00000000E-04  9.00000000E-04  9.00000000E-04  9.00000000E-04  9.00000000E-04  9.00000000E-04  9.00000000E-04  9.00000000E-04  9.00000000E-04  9.00000000E-04  9.00000000E-04  9.00000000E-04  9.00000000E-04  9.00000000E-04  9.00000000E-04  9.00000000E-04  9.00000000E-04  9.00000000E-04  9.00000000E-04  9.00000000E-04  9.00000000E-04  9.00000000E-04  9.00000000E-04  9.00000000E-04  9.00000000E-04  9.00000000E-04  9.00000000E-04  9.00000000E-04  9.00000000E-04  9.00000000E-04  9.00000000E-04  9.00000000E-04  9.00000000E-04  9.00000000E-04  9.00000000E-04  9.00000000E-04  9.00000000E-04  9.00000000E-04  9.00000000E-04  9.00000000E-04  9.00000000E-04  9.00000000E-04  9.00000000E-04  9.00000000E-04  9.00000000E-04  9.00000000E-04  9.00000000E-04  9.00000000E-04  9.00000000E-04  9.00000000E-04  9.00000000E-04  9.00000000E-04  9.00000000E-04  9.00000000E-04  9.00000000E-04  9.00000000E-04  9.00000000E-04  9.00000000E-04  9.00000000E-04  9.00000000E-04  9.00000000E-04  9.00000000E-04  9.00000000E-04  9.00000000E-04  9.00000000E-04  9.00000000E-04  9.00000000E-04  9.00000000E-04  9.00000000E-04  9.00000000E-04  9.00000000E-04  9.00000000E-04  9.00000000E-04  9.00000000E-04  9.00000000E-04  9.00000000E-04  9.00000000E-04  9.00000000E-04  9.00000000E-04  9.00000000E-04  9.00000000E-04  9.00000000E-04  9.00000000E-04  9.00000000E-04  9.00000000E-04  9.00000000E-04  9.00000000E-04  9.00000000E-04  9.00000000E-04  9.00000000E-04  9.00000000E-04  9.00000000E-04  9.00000000E-04  9.00000000E-04  9.00000000E-04  9.00000000E-04  9.00000000E-04  9.00000000E-04  9.00000000E-04  9.00000000E-04  9.00000000E-04  9.00000000E-04  9.00000000E-04  9.00000000E-04  9.00000000E-04  9.00000000E-04  9.00000000E-04  9.00000000E-04  9.00000000E-04  9.00000000E-04  9.00000000E-04  9.00000000E-04  9.00000000E-04  9.00000000E-04  9.00000000E-04  9.00000000E-04  9.00000000E-04  9.00000000E-04  9.00000000E-04  9.00000000E-04  9.00000000E-04  9.00000000E-04  9.00000000E-04  9.00000000E-04  9.00000000E-04  9.00000000E-04
      9.00000000E-04  9.00000000E-04  9.00000000E-04  9.00000000E-04  9.00000000E-04  9.00000000E-04  9.00000000E-04  9.00000000E-04  9.00000000E-04  9.00000000E-04  9.00000000E-04  9.00000000E-04  9.00000000E-04  9.00000000E-04  9.00000000E-04  9.00000000E-04  9.00000000E-04  9.00000000E-04  9.00000000E-04  9.00000000E-04  9.00000000E-04  9.00000000E-04  9.00000000E-04  9.00000000E-04  9.00000000E-04  9.00000000E-04  9.00000000E-04  9.00000000E-04  9.00000000E-04  9.00000000E-04  9.00000000E-04  9.00000000E-04  9.00000000E-04  9.00000000E-04  9.00000000E-04  9.00000000E-04  9.00000000E-04  9.00000000E-04  9.00000000E-04  9.00000000E-04  9.00000000E-04  9.00000000E-04  9.00000000E-04  9.00000000E-04  9.00000000E-04  9.00000000E-04  9.00000000E-04  9.00000000E-04  9.00000000E-04  9.00000000E-04  9.00000000E-04  9.00000000E-04  9.00000000E-04  9.00000000E-04  9.00000000E-04  9.00000000E-04  9.00000000E-04  9.00000000E-04  9.00000000E-04  9.00000000E-04  9.00000000E-04  9.00000000E-04  9.00000000E-04  9.00000000E-04  9.00000000E-04  9.00000000E-04  9.00000000E-04  9.00000000E-04  9.00000000E-04  9.00000000E-04  9.00000000E-04  9.00000000E-04  9.00000000E-04  9.00000000E-04  9.00000000E-04  9.00000000E-04  9.00000000E-04  9.00000000E-04  9.00000000E-04  9.00000000E-04  9.00000000E-04  9.00000000E-04  9.00000000E-04  9.00000000E-04  9.00000000E-04  9.00000000E-04  9.00000000E-04  9.00000000E-04  9.00000000E-04  9.00000000E-04  9.00000000E-04  9.00000000E-04  9.00000000E-04  9.00000000E-04  9.00000000E-04  9.00000000E-04  9.00000000E-04  9.00000000E-04  9.00000000E-04  9.00000000E-04  9.00000000E-04  9.00000000E-04  9.00000000E-04  9.00000000E-04  9.00000000E-04  9.00000000E-04  9.00000000E-04  9.00000000E-04  9.00000000E-04  9.00000000E-04  9.00000000E-04  9.00000000E-04  9.00000000E-04  9.00000000E-04  9.00000000E-04  9.00000000E-04  9.00000000E-04  9.00000000E-04  9.00000000E-04  9.00000000E-04  9.00000000E-04  9.00000000E-04  9.00000000E-04  9.00000000E-04  9.00000000E-04  9.00000000E-04  9.00000000E-04  9.00000000E-04
      9.00000000E-04  9.00000000E-04  9.00000000E-04  9.00000000E-04  9.00000000E-04  9.00000000E-04  9.00000000E-04  9.00000000E-04  9.00000000E-04  9.00000000E-04  9.00000000E-04  9.00000000E-04  9.00000000E-04  9.00000000E-04  9.00000000E-04  9.00000000E-04  9.00000000E-04  9.00000000E-04  9.00000000E-04  9.00000000E-04  9.00000000E-04  9.00000000E-04  9.00000000E-04  9.00000000E-04  9.00000000E-04  9.00000000E-04  9.00000000E-04  9.00000000E-04  9.00000000E-04  9.00000000E-04  9.00000000E-04  9.00000000E-04  9.00000000E-04  9.00000000E-04  9.00000000E-04  9.00000000E-04  9.00000000E-04  9.00000000E-04  9.00000000E-04  9.00000000E-04  9.00000000E-04  9.00000000E-04  9.00000000E-04  9.00000000E-04  9.00000000E-04  9.00000000E-04  9.00000000E-04  9.00000000E-04  9.00000000E-04  9.00000000E-04  9.00000000E-04  9.00000000E-04  9.00000000E-04  9.00000000E-04  9.00000000E-04  9.00000000E-04  9.00000000E-04  9.00000000E-04  9.00000000E-04  9.00000000E-04  9.00000000E-04  9.00000000E-04  9.00000000E-04  9.00000000E-04  9.00000000E-04  9.00000000E-04  9.00000000E-04  9.00000000E-04  9.00000000E-04  9.00000000E-04  9.00000000E-04  9.00000000E-04  9.00000000E-04  9.00000000E-04  9.00000000E-04  9.00000000E-04  9.00000000E-04  9.00000000E-04  9.00000000E-04  9.00000000E-04  9.00000000E-04  9.00000000E-04  9.00000000E-04  9.00000000E-04  9.00000000E-04  9.00000000E-04  9.00000000E-04  9.00000000E-04  9.00000000E-04  9.00000000E-04  9.00000000E-04  9.00000000E-04  9.00000000E-04  9.00000000E-04  9.00000000E-04  9.00000000E-04  9.00000000E-04  9.00000000E-04  9.00000000E-04  9.00000000E-04  9.00000000E-04  9.00000000E-04  9.00000000E-04  9.00000000E-04  9.00000000E-04  9.00000000E-04  9.00000000E-04  9.00000000E-04  9.00000000E-04  9.00000000E-04  9.00000000E-04  9.00000000E-04  9.00000000E-04  9.00000000E-04  9.00000000E-04  9.00000000E-04  9.00000000E-04  9.00000000E-04  9.00000000E-04  9.00000000E-04  9.00000000E-04  9.00000000E-04  9.00000000E-04  9.00000000E-04  9.00000000E-04  9.00000000E-04  9.00000000E-04  9.00000000E-04
      9.00000000E-04  9.00000000E-04  3.50000000E-06  3.50000000E-06  3.50000000E-06  3.50000000E-06  3.50000000E-06  3.50000000E-06  9.00000000E-04  9.00000000E-04  9.00000000E-04  9.00000000E-04  9.00000000E-04  9.00000000E-04  9.00000000E-04  9.00000000E-04  9.00000000E-04  9.00000000E-04  9.00000000E-04  9.00000000E-04  9.00000000E-04  9.00000000E-04  9.00000000E-04  9.00000000E-04  9.00000000E-04  9.00000000E-04  9.00000000E-04  9.00000000E-04  9.00000000E-04  9.00000000E-04  9.00000000E-04  9.00000000E-04  9.00000000E-04  9.00000000E-04  9.00000000E-04  9.00000000E-04  9.00000000E-04  9.00000000E-04  9.00000000E-04  9.00000000E-04  9.00000000E-04  9.00000000E-04  9.00000000E-04  9.00000000E-04  9.00000000E-04  9.00000000E-04  9.00000000E-04  9.00000000E-04  9.00000000E-04  9.00000000E-04  9.00000000E-04  9.00000000E-04  9.00000000E-04  9.00000000E-04  9.00000000E-04  9.00000000E-04  9.00000000E-04  9.00000000E-04  9.00000000E-04  9.00000000E-04  9.00000000E-04  9.00000000E-04  9.00000000E-04  9.00000000E-04  9.00000000E-04  9.00000000E-04  9.00000000E-04  9.00000000E-04  9.00000000E-04  9.00000000E-04  9.00000000E-04  9.00000000E-04  9.00000000E-04  9.00000000E-04  9.00000000E-04  9.00000000E-04  9.00000000E-04  9.00000000E-04  9.00000000E-04  9.00000000E-04  9.00000000E-04  9.00000000E-04  9.00000000E-04  9.00000000E-04  9.00000000E-04  9.00000000E-04  9.00000000E-04  9.00000000E-04  9.00000000E-04  9.00000000E-04  9.00000000E-04  9.00000000E-04  9.00000000E-04  9.00000000E-04  9.00000000E-04  9.00000000E-04  9.00000000E-04  9.00000000E-04  9.00000000E-04  9.00000000E-04  9.00000000E-04  9.00000000E-04  9.00000000E-04  9.00000000E-04  9.00000000E-04  9.00000000E-04  9.00000000E-04  9.00000000E-04  9.00000000E-04  9.00000000E-04  9.00000000E-04  9.00000000E-04  9.00000000E-04  9.00000000E-04  9.00000000E-04  9.00000000E-04  9.00000000E-04  9.00000000E-04  9.00000000E-04  9.00000000E-04  9.00000000E-04  9.00000000E-04  9.00000000E-04  9.00000000E-04  9.00000000E-04  9.00000000E-04  9.00000000E-04  9.00000000E-04
      9.00000000E-04  9.00000000E-04  9.00000000E-04  3.50000000E-06  3.50000000E-06  3.50000000E-06  3.50000000E-06  3.50000000E-06  3.50000000E-06  3.50000000E-06  3.50000000E-06  3.50000000E-06  3.50000000E-06  3.50000000E-06  3.50000000E-06  3.50000000E-06  3.50000000E-06  3.50000000E-06  3.50000000E-06  3.50000000E-06  3.50000000E-06  9.00000000E-04  9.00000000E-04  9.00000000E-04  9.00000000E-04  9.00000000E-04  9.00000000E-04  9.00000000E-04  9.00000000E-04  9.00000000E-04  9.00000000E-04  9.00000000E-04  9.00000000E-04  9.00000000E-04  9.00000000E-04  9.00000000E-04  9.00000000E-04  9.00000000E-04  9.00000000E-04  9.00000000E-04  9.00000000E-04  9.00000000E-04  9.00000000E-04  9.00000000E-04  9.00000000E-04  9.00000000E-04  9.00000000E-04  9.00000000E-04  9.00000000E-04  9.00000000E-04  9.00000000E-04  9.00000000E-04  9.00000000E-04  9.00000000E-04  9.00000000E-04  9.00000000E-04  9.00000000E-04  9.00000000E-04  9.00000000E-04  9.00000000E-04  9.00000000E-04  9.00000000E-04  9.00000000E-04  9.00000000E-04  9.00000000E-04  9.00000000E-04  9.00000000E-04  9.00000000E-04  9.00000000E-04  9.00000000E-04  9.00000000E-04  9.00000000E-04  9.00000000E-04  9.00000000E-04  9.00000000E-04  9.00000000E-04  9.00000000E-04  9.00000000E-04  9.00000000E-04  9.00000000E-04  9.00000000E-04  9.00000000E-04  9.00000000E-04  9.00000000E-04  9.00000000E-04  9.00000000E-04  9.00000000E-04  9.00000000E-04  9.00000000E-04  9.00000000E-04  9.00000000E-04  9.00000000E-04  9.00000000E-04  9.00000000E-04  9.00000000E-04  9.00000000E-04  9.00000000E-04  9.00000000E-04  9.00000000E-04  9.00000000E-04  9.00000000E-04  9.00000000E-04  9.00000000E-04  9.00000000E-04  9.00000000E-04  9.00000000E-04  9.00000000E-04  9.00000000E-04  9.00000000E-04  9.00000000E-04  9.00000000E-04  9.00000000E-04  9.00000000E-04  9.00000000E-04  9.00000000E-04  9.00000000E-04  9.00000000E-04  9.00000000E-04  9.00000000E-04  9.00000000E-04  9.00000000E-04  9.00000000E-04  9.00000000E-04  9.00000000E-04  9.00000000E-04  9.00000000E-04  9.00000000E-04  9.00000000E-04
      9.00000000E-04  9.00000000E-04  9.00000000E-04  3.50000000E-06  3.50000000E-06  3.50000000E-06  3.50000000E-06  3.50000000E-06  3.50000000E-06  3.50000000E-06  3.50000000E-06  3.50000000E-06  3.50000000E-06  3.50000000E-06  3.50000000E-06  3.50000000E-06  3.50000000E-06  3.50000000E-06  3.50000000E-06  3.50000000E-06  3.50000000E-06  3.50000000E-06  9.00000000E-04  9.00000000E-04  9.00000000E-04  9.00000000E-04  9.00000000E-04  9.00000000E-04  9.00000000E-04  9.00000000E-04  9.00000000E-04  9.00000000E-04  9.00000000E-04  9.00000000E-04  9.00000000E-04  9.00000000E-04  9.00000000E-04  9.00000000E-04  9.00000000E-04  9.00000000E-04  9.00000000E-04  9.00000000E-04  9.00000000E-04  9.00000000E-04  9.00000000E-04  9.00000000E-04  9.00000000E-04  9.00000000E-04  9.00000000E-04  9.00000000E-04  9.00000000E-04  9.00000000E-04  9.00000000E-04  9.00000000E-04  9.00000000E-04  9.00000000E-04  9.00000000E-04  9.00000000E-04  9.00000000E-04  9.00000000E-04  9.00000000E-04  9.00000000E-04  9.00000000E-04  9.00000000E-04  9.00000000E-04  9.00000000E-04  9.00000000E-04  9.00000000E-04  9.00000000E-04  9.00000000E-04  9.00000000E-04  9.00000000E-04  9.00000000E-04  9.00000000E-04  9.00000000E-04  9.00000000E-04  9.00000000E-04  9.00000000E-04  9.00000000E-04  9.00000000E-04  9.00000000E-04  9.00000000E-04  9.00000000E-04  9.00000000E-04  9.00000000E-04  9.00000000E-04  9.00000000E-04  9.00000000E-04  9.00000000E-04  9.00000000E-04  9.00000000E-04  9.00000000E-04  9.00000000E-04  9.00000000E-04  9.00000000E-04  9.00000000E-04  9.00000000E-04  9.00000000E-04  9.00000000E-04  9.00000000E-04  9.00000000E-04  9.00000000E-04  9.00000000E-04  9.00000000E-04  9.00000000E-04  9.00000000E-04  9.00000000E-04  9.00000000E-04  9.00000000E-04  9.00000000E-04  9.00000000E-04  9.00000000E-04  9.00000000E-04  9.00000000E-04  9.00000000E-04  9.00000000E-04  9.00000000E-04  9.00000000E-04  9.00000000E-04  9.00000000E-04  9.00000000E-04  9.00000000E-04  9.00000000E-04  9.00000000E-04  9.00000000E-04  9.00000000E-04  9.00000000E-04  9.00000000E-04
      9.00000000E-04  9.00000000E-04  9.00000000E-04  3.50000000E-06  3.50000000E-06  3.50000000E-06  3.50000000E-06  3.50000000E-06  3.50000000E-06  3.50000000E-06  3.50000000E-06  3.50000000E-06  3.50000000E-06  3.50000000E-06  3.50000000E-06  3.50000000E-06  3.50000000E-06  3.50000000E-06  3.50000000E-06  3.50000000E-06  3.50000000E-06  3.50000000E-06  3.50000000E-06  3.50000000E-06  9.00000000E-04  9.00000000E-04  9.00000000E-04  9.00000000E-04  9.00000000E-04  9.00000000E-04  9.00000000E-04  9.00000000E-04  9.00000000E-04  9.00000000E-04  9.00000000E-04  9.00000000E-04  9.00000000E-04  9.00000000E-04  9.00000000E-04  9.00000000E-04  9.00000000E-04  9.00000000E-04  9.00000000E-04  9.00000000E-04  9.00000000E-04  9.00000000E-04  9.00000000E-04  9.00000000E-04  9.00000000E-04  9.00000000E-04  9.00000000E-04  9.00000000E-04  9.00000000E-04  9.00000000E-04  9.00000000E-04  9.00000000E-04  9.00000000E-04  9.00000000E-04  9.00000000E-04  9.00000000E-04  9.00000000E-04  9.00000000E-04  9.00000000E-04  9.00000000E-04  9.00000000E-04  9.00000000E-04  9.00000000E-04  9.00000000E-04  9.00000000E-04  9.00000000E-04  9.00000000E-04  9.00000000E-04  9.00000000E-04  9.00000000E-04  9.00000000E-04  9.00000000E-04  9.00000000E-04  9.00000000E-04  9.00000000E-04  9.00000000E-04  9.00000000E-04  9.00000000E-04  9.00000000E-04  9.00000000E-04  9.00000000E-04  9.00000000E-04  9.00000000E-04  9.00000000E-04  9.00000000E-04  9.00000000E-04  9.00000000E-04  9.00000000E-04  9.00000000E-04  9.00000000E-04  9.00000000E-04  9.00000000E-04  9.00000000E-04  9.00000000E-04  9.00000000E-04  9.00000000E-04  9.00000000E-04  9.00000000E-04  9.00000000E-04  9.00000000E-04  9.00000000E-04  9.00000000E-04  9.00000000E-04  9.00000000E-04  9.00000000E-04  9.00000000E-04  9.00000000E-04  9.00000000E-04  9.00000000E-04  9.00000000E-04  9.00000000E-04  9.00000000E-04  9.00000000E-04  9.00000000E-04  9.00000000E-04  9.00000000E-04  9.00000000E-04  9.00000000E-04  9.00000000E-04  9.00000000E-04  9.00000000E-04  9.00000000E-04  9.00000000E-04  9.00000000E-04
      9.00000000E-04  9.00000000E-04  9.00000000E-04  3.50000000E-06  3.50000000E-06  3.50000000E-06  3.50000000E-06  3.50000000E-06  3.50000000E-06  3.50000000E-06  3.50000000E-06  3.50000000E-06  3.50000000E-06  3.50000000E-06  3.50000000E-06  3.50000000E-06  3.50000000E-06  3.50000000E-06  3.50000000E-06  3.50000000E-06  3.50000000E-06  3.50000000E-06  3.50000000E-06  3.50000000E-06  3.50000000E-06  9.00000000E-04  9.00000000E-04  9.00000000E-04  9.00000000E-04  9.00000000E-04  9.00000000E-04  9.00000000E-04  9.00000000E-04  9.00000000E-04  9.00000000E-04  9.00000000E-04  9.00000000E-04  9.00000000E-04  9.00000000E-04  9.00000000E-04  9.00000000E-04  9.00000000E-04  9.00000000E-04  9.00000000E-04  9.00000000E-04  9.00000000E-04  9.00000000E-04  9.00000000E-04  9.00000000E-04  9.00000000E-04  9.00000000E-04  9.00000000E-04  9.00000000E-04  9.00000000E-04  9.00000000E-04  9.00000000E-04  9.00000000E-04  9.00000000E-04  9.00000000E-04  9.00000000E-04  9.00000000E-04  9.00000000E-04  9.00000000E-04  9.00000000E-04  9.00000000E-04  9.00000000E-04  9.00000000E-04  9.00000000E-04  9.00000000E-04  9.00000000E-04  9.00000000E-04  9.00000000E-04  9.00000000E-04  9.00000000E-04  9.00000000E-04  9.00000000E-04  9.00000000E-04  9.00000000E-04  9.00000000E-04  9.00000000E-04  9.00000000E-04  9.00000000E-04  9.00000000E-04  9.00000000E-04  9.00000000E-04  9.00000000E-04  9.00000000E-04  9.00000000E-04  9.00000000E-04  9.00000000E-04  9.00000000E-04  9.00000000E-04  9.00000000E-04  9.00000000E-04  9.00000000E-04  9.00000000E-04  9.00000000E-04  9.00000000E-04  9.00000000E-04  9.00000000E-04  9.00000000E-04  9.00000000E-04  9.00000000E-04  9.00000000E-04  9.00000000E-04  9.00000000E-04  9.00000000E-04  9.00000000E-04  9.00000000E-04  9.00000000E-04  9.00000000E-04  9.00000000E-04  9.00000000E-04  9.00000000E-04  9.00000000E-04  9.00000000E-04  9.00000000E-04  9.00000000E-04  9.00000000E-04  9.00000000E-04  9.00000000E-04  9.00000000E-04  9.00000000E-04  9.00000000E-04  9.00000000E-04  9.00000000E-04  9.00000000E-04  9.00000000E-04
      9.00000000E-04  9.00000000E-04  9.00000000E-04  3.50000000E-06  3.50000000E-06  3.50000000E-06  3.50000000E-06  3.50000000E-06  3.50000000E-06  3.50000000E-06  3.50000000E-06  3.50000000E-06  3.50000000E-06  3.50000000E-06  3.50000000E-06  3.50000000E-06  3.50000000E-06  3.50000000E-06  3.50000000E-06  3.50000000E-06  3.50000000E-06  3.50000000E-06  3.50000000E-06  3.50000000E-06  3.50000000E-06  3.50000000E-06  3.50000000E-06  9.00000000E-04  9.00000000E-04  9.00000000E-04  9.00000000E-04  9.00000000E-04  9.00000000E-04  9.00000000E-04  9.00000000E-04  9.00000000E-04  9.00000000E-04  9.00000000E-04  9.00000000E-04  9.00000000E-04  9.00000000E-04  9.00000000E-04  9.00000000E-04  9.00000000E-04  9.00000000E-04  9.00000000E-04  9.00000000E-04  9.00000000E-04  9.00000000E-04  9.00000000E-04  9.00000000E-04  9.00000000E-04  9.00000000E-04  9.00000000E-04  9.00000000E-04  9.00000000E-04  9.00000000E-04  9.00000000E-04  9.00000000E-04  9.00000000E-04  9.00000000E-04  9.00000000E-04  9.00000000E-04  9.00000000E-04  9.00000000E-04  9.00000000E-04  9.00000000E-04  9.00000000E-04  9.00000000E-04  9.00000000E-04  9.00000000E-04  9.00000000E-04  9.00000000E-04  9.00000000E-04  9.00000000E-04  9.00000000E-04  9.00000000E-04  9.00000000E-04  9.00000000E-04  9.00000000E-04  9.00000000E-04  9.00000000E-04  9.00000000E-04  9.00000000E-04  9.00000000E-04  9.00000000E-04  9.00000000E-04  9.00000000E-04  9.00000000E-04  9.00000000E-04  9.00000000E-04  9.00000000E-04  9.00000000E-04  9.00000000E-04  9.00000000E-04  9.00000000E-04  9.00000000E-04  9.00000000E-04  9.00000000E-04  9.00000000E-04  9.00000000E-04  9.00000000E-04  9.00000000E-04  9.00000000E-04  9.00000000E-04  9.00000000E-04  9.00000000E-04  9.00000000E-04  9.00000000E-04  9.00000000E-04  9.00000000E-04  9.00000000E-04  9.00000000E-04  9.00000000E-04  9.00000000E-04  9.00000000E-04  9.00000000E-04  9.00000000E-04  9.00000000E-04  9.00000000E-04  9.00000000E-04  9.00000000E-04  9.00000000E-04  9.00000000E-04  9.00000000E-04  9.00000000E-04  9.00000000E-04  9.00000000E-04
      9.00000000E-04  9.00000000E-04  9.00000000E-04  3.50000000E-06  3.50000000E-06  3.50000000E-06  3.50000000E-06  3.50000000E-06  3.50000000E-06  3.50000000E-06  3.50000000E-06  3.50000000E-06  3.50000000E-06  3.50000000E-06  3.50000000E-06  3.50000000E-06  3.50000000E-06  3.50000000E-06  3.50000000E-06  3.50000000E-06  3.50000000E-06  3.50000000E-06  3.50000000E-06  3.50000000E-06  3.50000000E-06  3.50000000E-06  3.50000000E-06  3.50000000E-06  3.50000000E-06  9.00000000E-04  9.00000000E-04  9.00000000E-04  9.00000000E-04  9.00000000E-04  9.00000000E-04  9.00000000E-04  9.00000000E-04  9.00000000E-04  9.00000000E-04  9.00000000E-04  9.00000000E-04  9.00000000E-04  9.00000000E-04  9.00000000E-04  9.00000000E-04  9.00000000E-04  9.00000000E-04  9.00000000E-04  9.00000000E-04  9.00000000E-04  9.00000000E-04  9.00000000E-04  9.00000000E-04  9.00000000E-04  9.00000000E-04  9.00000000E-04  9.00000000E-04  9.00000000E-04  9.00000000E-04  9.00000000E-04  9.00000000E-04  9.00000000E-04  9.00000000E-04  9.00000000E-04  9.00000000E-04  9.00000000E-04  9.00000000E-04  9.00000000E-04  9.00000000E-04  9.00000000E-04  9.00000000E-04  9.00000000E-04  9.00000000E-04  9.00000000E-04  9.00000000E-04  9.00000000E-04  9.00000000E-04  9.00000000E-04  9.00000000E-04  9.00000000E-04  9.00000000E-04  9.00000000E-04  9.00000000E-04  9.00000000E-04  9.00000000E-04  9.00000000E-04  9.00000000E-04  9.00000000E-04  9.00000000E-04  9.00000000E-04  9.00000000E-04  9.00000000E-04  9.00000000E-04  9.00000000E-04  9.00000000E-04  9.00000000E-04  9.00000000E-04  9.00000000E-04  9.00000000E-04  9.00000000E-04  9.00000000E-04  9.00000000E-04  9.00000000E-04  9.00000000E-04  9.00000000E-04  9.00000000E-04  9.00000000E-04  9.00000000E-04  9.00000000E-04  9.00000000E-04  9.00000000E-04  9.00000000E-04  9.00000000E-04  9.00000000E-04  9.00000000E-04  9.00000000E-04  9.00000000E-04  9.00000000E-04  9.00000000E-04  9.00000000E-04  9.00000000E-04  9.00000000E-04  9.00000000E-04  9.00000000E-04  9.00000000E-04  9.00000000E-04  9.00000000E-04  9.00000000E-04