# File generated by Flopy version 3.9.5 on 11/25/2025 at 16:20:48.
BEGIN OPTIONS
  LIST  Transient_cali.lst
  PRINT_INPUT
  SAVE_FLOWS
END OPTIONS

BEGIN PACKAGES
  dis6  Transient_cali.dis  dis
  ic6  Transient_cali.ic  ic
  npf6  Transient_cali.npf  npf
  obs6  Transient_cali.ob_gw
  sto6  Transient_cali.sto  sto
  oc6  Transient_cali.oc  oc
  ghb6  Transient_cali.ghb  ghb-1
  wel6  Transient_cali.wel  wel-1
  riv6  Transient_cali.riv  riv-1
  rch6  Transient_cali.rch  rch-1
END PACKAGES

