# File generated by Flopy version 3.9.5 on 11/25/2025 at 16:20:48.
BEGIN OPTIONS
  TIME_UNITS  seconds
END OPTIONS

BEGIN DIMENSIONS
  NPER  2
END DIMENSIONS

BEGIN PERIODDATA
       1.00000000  1       1.00000000  perlen nstp tsmult, Stress period      2 Time =  0.000000000000E+000  -  4.320000000000E+005
  4.32000000E+05  36       1.40000000
END PERIODDATA

